%nprocshared=20
%mem=80GB
%chk=E10.chk
# opt freq def2svp m062x

Title Card Required

0 1
 C                  3.08899000    3.32899000   -1.26841000
 C(Iso=1)           3.19461000    2.40036000   -0.10215000
 O                  2.34139000    2.30875000    0.77195000
 O(Iso=2)           4.35218000    1.69756000   -0.15755000
 C(Iso=3)           4.55182000    0.78708000    0.92986000
 C(Iso=4)           5.07876000    1.52851000    2.11754000
 C(Iso=5)           6.38489000    1.70639000    2.36788000
 C                  6.91321000    2.40543000    3.54661000
 C                  8.17257000    2.04803000    4.04748000
 C                  8.72625000    2.73277000    5.13287000
 C                  8.03081000    3.78777000    5.72006000
 C                  6.77831000    4.15108000    5.23193000
 C                  6.22364000    3.46437000    4.15094000
 H                  2.13713000    3.86394000   -1.20692000
 H                  3.10813000    2.75857000   -2.19937000
 H                  3.90230000    4.05721000   -1.23862000
 H                  5.26590000    0.02231000    0.60378000
 H                  3.62539000    0.25878000    1.18132000
 H                  4.31783000    1.90701000    2.79653000
 H                  7.12537000    1.32849000    1.66668000
 H                  8.73502000    1.23154000    3.60009000
 H                  9.70367000    2.44878000    5.51407000
 H                  8.46703000    4.33269000    6.55219000
 H                  6.23434000    4.97707000    5.68147000
 H                  5.25282000    3.77931000    3.77789000

