%nprocshared=20
%mem=80GB
%chk=E11.chk
# opt freq def2svp m062x

Title Card Required

0 1
 O                  4.95434000   -2.05316000   -0.75828000
 C(Iso=1)           4.03514000   -1.60428000   -1.42635000
 O(Iso=2)           3.72907000   -0.29814000   -1.60647000
 C(Iso=3)           4.54741000    0.65360000   -0.92259000
 C(Iso=4)           5.05114000    1.64523000   -1.93186000
 C(Iso=5)           6.34906000    1.91671000   -2.15263000
 C                  6.83723000    2.95032000   -3.13378000
 C                  7.72711000    2.33818000   -4.21443000
 C                  8.24839000    3.31489000   -5.24655000
 O                  7.83433000    4.59075000   -5.03149000
 C                  8.30748000    5.53196000   -5.99857000
 O                  8.97180000    2.96896000   -6.17428000
 O                  3.12573000   -2.33882000   -2.11650000
 C                  3.31920000   -3.74996000   -2.04039000
 H                  5.36690000    0.19886000   -0.35597000
 H                  3.90524000    1.17992000   -0.20722000
 H                  4.28369000    2.17339000   -2.49424000
 H                  7.11071000    1.38902000   -1.58139000
 H                  7.40110000    3.70799000   -2.57551000
 H                  5.98929000    3.46941000   -3.59743000
 H                  7.16734000    1.56668000   -4.75612000
 H                  8.60136000    1.86984000   -3.74649000
 H                  7.91600000    6.51801000   -5.73287000
 H                  7.94193000    5.27321000   -6.99748000
 H                  9.40103000    5.57962000   -5.98606000
 H                  2.49563000   -4.23149000   -2.57594000
 H                  3.30043000   -4.09385000   -1.00144000
 H                  4.25806000   -4.03087000   -2.52692000

