%nprocshared=20
%mem=80GB
%chk=E13.chk
# opt freq def2svp m062x

Title Card Required

0 1
 C                  2.13355000   -3.86920000    2.45845000
 C                  2.36292000   -2.42651000    2.04457000
 O                  3.05572000   -2.42013000    0.78985000
 C(Iso=1)           4.40747000   -2.51978000    0.88739000
 O                  5.05579000   -2.40148000    1.91455000
 O(Iso=2)           4.89322000   -2.84227000   -0.33417000
 C(Iso=3)           6.29020000   -3.14013000   -0.37584000
 C(Iso=4)           6.46415000   -4.61085000   -0.60729000
 C(Iso=5)           7.13253000   -5.42240000    0.23127000
 C                  7.33363000   -6.81031000   -0.03175000
 C                  6.95150000   -7.60545000   -1.10136000
 C                  7.38151000   -8.96093000   -0.98309000
 C                  8.08061000   -9.17659000    0.17969000
 S                  8.21544000   -7.75673000    1.11636000
 H                  1.60773000   -3.92815000    3.41556000
 H                  3.08272000   -4.40801000    2.54433000
 H                  1.54493000   -4.39168000    1.69689000
 H                  2.90771000   -1.86890000    2.81554000
 H                  1.40326000   -1.92058000    1.89851000
 H                  6.83210000   -2.79689000    0.51350000
 H                  6.71126000   -2.59697000   -1.22947000
 H                  6.02377000   -4.98958000   -1.52459000
 H                  7.55353000   -5.00884000    1.14695000
 H                  6.38990000   -7.23756000   -1.95092000
 H                  7.18810000   -9.73432000   -1.71634000
 H                  8.52123000  -10.10104000    0.52664000

