%nprocshared=20
%mem=80GB
%chk=E15.chk
# opt freq def2svp m062x

Title Card Required

0 1
 C                  3.90181000    2.41142000   -3.16635000
 O                  4.13141000    1.03257000   -3.44265000
 C(Iso=1)           4.54015000    0.32634000   -2.36027000
 O                  4.68857000    0.76656000   -1.23080000
 O(Iso=2)           4.75999000   -0.95316000   -2.75334000
 C(Iso=3)           5.22748000   -1.83343000   -1.73303000
 C(Iso=4)           6.70243000   -1.65675000   -1.54816000
 C(Iso=5)           7.63889000   -2.39229000   -2.16886000
 C                  9.08272000   -2.23706000   -1.94687000
 C                  9.60106000   -1.85897000   -0.70248000
 C                 10.98140000   -1.76231000   -0.49696000
 C                 11.86784000   -2.05167000   -1.53185000
 O                 13.23155000   -1.98985000   -1.45772000
 C                 13.78423000   -1.60375000   -0.20499000
 C                 11.35915000   -2.44343000   -2.77184000
 C                  9.97784000   -2.54117000   -2.97795000
 H                  3.56714000    2.89268000   -4.08976000
 H                  4.82797000    2.89564000   -2.84035000
 H                  3.11735000    2.52758000   -2.41228000
 H                  4.99471000   -2.85650000   -2.05020000
 H                  4.69350000   -1.67496000   -0.78801000
 H                  6.98478000   -0.86833000   -0.85250000
 H                  7.34270000   -3.14591000   -2.89640000
 H                  8.94033000   -1.64338000    0.13291000
 H                 11.32452000   -1.46349000    0.48752000
 H                 14.87092000   -1.54797000   -0.32007000
 H                 13.56656000   -2.35306000    0.56409000
 H                 13.43300000   -0.61286000    0.09867000
 H                 12.04267000   -2.67712000   -3.58386000
 H                  9.61362000   -2.84975000   -3.95538000

