%nprocshared=20
%mem=80GB
%chk=E16.chk
# opt freq def2svp m062x

Title Card Required

0 1
 O                  4.93903000    1.85408000    1.18824000
 C(Iso=1)           3.99002000    1.31432000    1.72972000
 O(Iso=2)           3.63264000    0.00993000    1.63823000
 C(Iso=3)           4.41025000   -0.82654000    0.78057000
 C(Iso=4)           4.90140000   -1.99963000    1.57894000
 C(Iso=5)           6.20199000   -2.30636000    1.70941000
 C                  6.72166000   -3.48107000    2.49368000
 C                  8.25319000   -3.50868000    2.47248000
 C                  8.82662000   -4.65246000    3.26653000
 C                  9.00599000   -5.90912000    2.67432000
 C                  9.59467000   -6.94899000    3.39408000
 C                  9.99952000   -6.74369000    4.71193000
 C                  9.79222000   -5.50700000    5.32019000
 C                  9.20106000   -4.46689000    4.60336000
 O                  3.08051000    1.92542000    2.53122000
 C                  3.28601000    3.31820000    2.76867000
 H                  5.23613000   -0.29750000    0.29319000
 H                  3.74677000   -1.19683000   -0.00899000
 H                  4.14417000   -2.62281000    2.05037000
 H                  6.94007000   -1.66924000    1.22460000
 H                  6.33030000   -4.41169000    2.06429000
 H                  6.36790000   -3.41764000    3.52999000
 H                  8.65360000   -2.56327000    2.86317000
 H                  8.61792000   -3.57539000    1.43822000
 H                  8.70159000   -6.07976000    1.64413000
 H                  9.74664000   -7.91638000    2.92303000
 H                 10.47723000   -7.54757000    5.26516000
 H                 10.09956000   -5.34857000    6.35033000
 H                  9.04783000   -3.50545000    5.08847000
 H                  2.45468000    3.67354000    3.38668000
 H                  3.28160000    3.88626000    1.83364000
 H                  4.21548000    3.47996000    3.32158000

