%nprocshared=20
%mem=80GB
%chk=E17.chk
# opt freq def2svp m062x

Title Card Required

0 1
 O                  6.03504000    2.20322000   11.79780000
 C(Iso=1)           7.12207000    1.73900000   11.49182000
 O(Iso=2)           7.40295000    1.01336000   10.38589000
 C(Iso=3)           6.31603000    0.76191000    9.48648000
 C(Iso=4)           6.76219000    1.20529000    8.12938000
 C(Iso=5)           6.11450000    2.05387000    7.30817000
 C                  6.65245000    2.56143000    5.98245000
 C                  8.17300000    2.42116000    5.87550000
 O                  8.71294000    2.99455000    4.68353000
 C                 10.18041000    3.08647000    4.67340000
 C                 10.74180000    1.61906000    4.74181000
 C                 10.94339000    0.85775000    3.57134000
 C                 11.55629000   -0.40023000    3.61359000
 C                 11.94174000   -0.95168000    4.83076000
 C                 11.65754000   -0.27445000    6.00977000
 C                 11.04138000    0.97981000    5.96497000
 C                 10.59933000    3.77682000    3.33643000
 C                  9.65501000    4.34158000    2.45854000
 C                 10.05628000    4.96263000    1.27092000
 C                 11.40551000    5.02378000    0.93181000
 C                 12.35965000    4.46858000    1.78080000
 C                 11.96064000    3.85916000    2.97380000
 C                 10.62713000    4.05243000    5.82323000
 C                 11.81817000    3.88219000    6.55278000
 C                 12.09580000    4.66523000    7.67666000
 C                 11.22302000    5.68019000    8.05561000
 C                 10.09166000    5.93928000    7.28941000
 C                  9.80806000    5.14809000    6.17431000
 O                  8.26316000    1.85259000   12.21916000
 C                  8.11453000    2.58499000   13.43685000
 H                  5.37878000    1.24147000    9.78414000
 H                  6.15936000   -0.32150000    9.46660000
 H                  7.72135000    0.78422000    7.84056000
 H                  5.14976000    2.45760000    7.61077000
 H                  6.38040000    3.61921000    5.87219000
 H                  6.16070000    2.03593000    5.15587000
 H                  8.41886000    1.35875000    5.88717000
 H                  8.60462000    2.89886000    6.76074000
 H                 10.65092000    1.24826000    2.59781000
 H                 11.74340000   -0.94187000    2.68966000
 H                 12.44696000   -1.91326000    4.86109000
 H                 11.92312000   -0.71355000    6.96821000
 H                 10.81309000    1.46115000    6.91418000
 H                  8.59292000    4.30251000    2.68977000
 H                  9.30988000    5.39617000    0.60991000
 H                 11.71942000    5.50427000    0.00776000
 H                 13.41181000    4.50231000    1.51637000
 H                 12.72602000    3.42248000    3.61235000
 H                 12.53274000    3.10698000    6.28632000
 H                 12.98913000    4.46953000    8.26427000
 H                 11.43031000    6.27523000    8.94065000
 H                  9.41609000    6.74325000    7.56890000
 H                  8.90740000    5.35916000    5.59935000
 H                  9.04895000    2.49919000   13.99682000
 H                  7.30630000    2.18143000   14.04699000
 H                  7.94270000    3.64684000   13.21484000

