%nprocshared=20
%mem=80GB
%chk=E19.chk
# opt freq def2svp m062x

Title Card Required

0 1
 C                  3.94712000    2.62715000   -2.56787000
 O                  4.15347000    1.28722000   -3.00829000
 C(Iso=1)           4.53257000    0.44158000   -2.01837000
 O                  4.67460000    0.73899000   -0.84068000
 O(Iso=2)           4.73927000   -0.77964000   -2.56315000
 C(Iso=3)           5.18665000   -1.78952000   -1.65648000
 C(Iso=4)           6.65956000   -1.64296000   -1.42580000
 C(Iso=5)           7.60002000   -2.29879000   -2.12416000
 C                  8.99285000   -2.12365000   -1.87496000
 C                  9.65934000   -1.35256000   -0.93306000
 C                 11.07714000   -1.46065000   -1.01324000
 C                 11.46917000   -2.31013000   -2.01868000
 S                 10.13505000   -2.96994000   -2.85558000
 H                  3.64287000    3.22580000   -3.43033000
 H                  4.87625000    3.04539000   -2.16712000
 H                  3.14983000    2.66652000   -1.81938000
 H                  4.95531000   -2.76098000   -2.10659000
 H                  4.63648000   -1.74892000   -0.70778000
 H                  6.92618000   -0.94935000   -0.63335000
 H                  7.29745000   -2.97214000   -2.92430000
 H                  9.15488000   -0.72919000   -0.20552000
 H                 11.77016000   -0.93983000   -0.36431000
 H                 12.47687000   -2.57737000   -2.30567000

