%nprocshared=20
%mem=80GB
%chk=E23.chk
# opt freq def2svp m062x

Title Card Required

0 1
 C                  3.92707000   -2.38725000   -3.04028000
 O                  4.16062000   -2.95239000   -1.75282000
 C(Iso=1)           4.56512000   -2.05075000   -0.82376000
 O                  4.70435000   -0.85160000   -1.00638000
 O(Iso=2)           4.79909000   -2.71791000    0.33075000
 C(Iso=3)           5.26760000   -1.91735000    1.41698000
 C(Iso=4)           6.74354000   -1.69588000    1.28478000
 C(Iso=5)           7.67507000   -2.45509000    1.88345000
 C                  9.12346000   -2.22691000    1.77541000
 C                  9.67078000   -0.94119000    1.66727000
 C                 11.05456000   -0.75611000    1.62183000
 C                 11.90790000   -1.85431000    1.69434000
 C                 11.37802000   -3.13764000    1.81033000
 C                  9.99323000   -3.32259000    1.85447000
 H                  3.59391000   -3.18758000   -3.70644000
 H                  4.85182000   -1.96267000   -3.44406000
 H                  3.14012000   -1.62906000   -2.99093000
 H                  5.03631000   -2.45673000    2.34233000
 H                  4.73156000   -0.96191000    1.47546000
 H                  7.03037000   -0.85752000    0.65474000
 H                  7.37248000   -3.31680000    2.47495000
 H                  9.02831000   -0.06539000    1.63030000
 H                 11.46364000    0.24727000    1.53852000
 H                 12.98453000   -1.70961000    1.66646000
 H                 12.04195000   -3.99615000    1.87091000
 H                  9.60085000   -4.33291000    1.94619000

