%nprocshared=20
%mem=80GB
%chk=E25.chk
# opt freq def2svp m062x

Title Card Required

0 1
 C                  3.94310000    3.68442000   -2.06491000
 O                  4.19162000    2.53685000   -2.87133000
 C(Iso=1)           4.60594000    1.45953000   -2.15757000
 O                  4.75502000    1.43734000   -0.94410000
 O(Iso=2)           4.82195000    0.43394000   -3.01058000
 C(Iso=3)           5.27506000   -0.77062000   -2.38942000
 C(Iso=4)           6.75105000   -0.68408000   -2.13731000
 C(Iso=5)           7.68528000   -1.08338000   -3.01533000
 C                  9.12573000   -0.99409000   -2.73629000
 C                  9.79295000    0.19774000   -3.05865000
 C                 11.16237000    0.33921000   -2.81377000
 C                 11.88052000   -0.70226000   -2.23113000
 C                 11.23381000   -1.89671000   -1.91529000
 C                  9.86689000   -2.04912000   -2.17723000
 Cl                 9.15039000   -3.58350000   -1.82469000
 H                  3.61091000    4.49515000   -2.71951000
 H                  4.85884000    4.00411000   -1.55711000
 H                  3.14985000    3.48086000   -1.33787000
 H                  5.04025000   -1.60483000   -3.05970000
 H                  4.72748000   -0.96455000   -1.45903000
 H                  7.03809000   -0.27480000   -1.17106000
 H                  7.41252000   -1.47027000   -3.99289000
 H                  9.24998000    1.02304000   -3.51466000
 H                 11.66841000    1.26406000   -3.08076000
 H                 12.94354000   -0.58899000   -2.03194000
 H                 11.80267000   -2.71101000   -1.47325000

