%nprocshared=20
%mem=80GB
%chk=E26.chk
# opt freq def2svp m062x

Title Card Required

0 1
 C                  3.87536000   -2.14513000    3.34092000
 O                  4.09856000   -0.74177000    3.45051000
 C(Iso=1)           4.49989000   -0.16498000    2.29106000
 O                  4.64816000   -0.74121000    1.22249000
 O(Iso=2)           4.71327000    1.14960000    2.52509000
 C(Iso=3)           5.17532000    1.90057000    1.39980000
 C(Iso=4)           6.65131000    1.70920000    1.23793000
 C(Iso=5)           7.58079000    2.51825000    1.77015000
 C                  9.02851000    2.33725000    1.58814000
 C                  9.56625000    1.79992000    0.41169000
 C                 10.94737000    1.66943000    0.24986000
 C                 11.82560000    2.08584000    1.25885000
 C                 13.31788000    1.94569000    1.09575000
 F                 13.68647000    1.37484000   -0.08594000
 F                 13.96336000    3.14411000    1.14599000
 F                 13.87969000    1.17735000    2.07002000
 C                 11.28987000    2.64225000    2.42996000
 C                  9.90526000    2.76972000    2.59058000
 H                  3.54889000   -2.51442000    4.31447000
 H                  4.80293000   -2.65981000    3.06691000
 H                  3.08798000   -2.35323000    2.60867000
 H                  4.93575000    2.95207000    1.58660000
 H                  4.64178000    1.62079000    0.48259000
 H                  6.93851000    0.84416000    0.64498000
 H                  7.27673000    3.35164000    2.40050000
 H                  8.91750000    1.48316000   -0.40142000
 H                 11.33252000    1.24298000   -0.67540000
 H                 11.95201000    2.98088000    3.22593000
 H                  9.52008000    3.20229000    3.51122000

