%nprocshared=20
%mem=80GB
%chk=E27.chk
# opt freq def2svp m062x

Title Card Required

0 1
 C                  2.06269000   -2.01112000   -3.87412000
 C                  2.30191000   -1.68172000   -2.41262000
 O                  2.99906000   -0.43238000   -2.33632000
 C(Iso=1)           4.34931000   -0.52313000   -2.43945000
 O                  4.99888000   -1.55630000   -2.37710000
 O(Iso=2)           4.83413000    0.71681000   -2.68372000
 C(Iso=3)           6.23456000    0.78454000   -2.95807000
 C(Iso=4)           6.43222000    1.10127000   -4.41234000
 C(Iso=5)           7.09800000    0.31299000   -5.27087000
 C                  7.34904000    0.65465000   -6.72167000
 C                  8.85383000    0.71191000   -6.98666000
 C                  6.68592000   -0.36674000   -7.64450000
 H                  1.53721000   -2.96252000   -3.98579000
 H                  3.00909000   -2.06390000   -4.42336000
 H                  1.47026000   -1.22035000   -4.34720000
 H                  2.84664000   -2.48639000   -1.90220000
 H                  1.34515000   -1.56299000   -1.89294000
 H                  6.77682000   -0.12058000   -2.66104000
 H                  6.64198000    1.60670000   -2.36040000
 H                  6.01349000    2.04636000   -4.75338000
 H                  7.50305000   -0.63713000   -4.92057000
 H                  6.92691000    1.64202000   -6.94955000
 H                  9.33416000   -0.25389000   -6.78914000
 H                  9.33549000    1.46221000   -6.35072000
 H                  9.05608000    0.97937000   -8.02959000
 H                  7.08271000   -1.37532000   -7.48121000
 H                  6.85723000   -0.10675000   -8.69539000
 H                  5.60311000   -0.39955000   -7.48250000

