%nprocshared=20
%mem=80GB
%chk=E28.chk
# opt freq def2svp m062x

Title Card Required

0 1
 C                 18.71237000    0.38796000    7.82576000
 C                 17.33794000   -0.26288000    7.85948000
 O                 16.76645000   -0.19351000    6.54569000
 C(Iso=1)          16.11962000    0.97035000    6.26747000
 O                 15.84652000    1.84184000    7.07792000
 O(Iso=2)          15.91495000    1.02128000    4.93110000
 C(Iso=3)          15.39424000    2.26295000    4.45344000
 C(Iso=4)          13.90379000    2.15407000    4.37626000
 C(Iso=5)          13.07130000    2.93502000    5.07969000
 C                 11.57802000    2.77716000    5.11340000
 C                 11.11713000    1.84439000    6.23735000
 C                 11.61404000    2.27295000    7.61612000
 O                 11.03530000    3.52036000    7.99221000
 Si                11.38598000    4.18968000    9.48984000
 C                 10.55728000    5.90352000    9.58567000
 C                  9.62842000    6.23381000   10.58655000
 C                  9.09397000    7.52784000   10.68856000
 C                  9.47249000    8.51462000    9.78122000
 C                 10.36228000    8.20215000    8.75606000
 C                 10.88906000    6.90883000    8.65197000
 C                 10.63161000    3.08707000   10.84830000
 C                  9.87139000    1.95012000   10.52033000
 C                  9.51033000    1.01932000   11.49729000
 C                  9.84764000    1.23920000   12.82757000
 C                 10.50583000    2.40991000   13.18727000
 C                 10.88707000    3.32903000   12.20842000
 C                 13.42331000    4.37020000    9.82516000
 C                 14.07293000    5.16959000    8.67595000
 C                 13.69616000    5.11441000   11.14921000
 C                 14.07484000    2.97026000    9.92308000
 H                 19.19413000    0.34659000    8.80560000
 H                 18.64127000    1.43495000    7.51230000
 H                 19.35242000   -0.11531000    7.09308000
 H                 16.69414000    0.19970000    8.61450000
 H                 17.43695000   -1.32177000    8.12296000
 H                 15.79841000    2.42531000    3.44946000
 H                 15.73114000    3.11097000    5.06483000
 H                 13.50775000    1.36165000    3.74728000
 H                 13.48384000    3.70667000    5.72661000
 H                 11.21937000    2.38607000    4.15431000
 H                 11.12333000    3.76655000    5.23754000
 H                 11.47984000    0.82739000    6.03665000
 H                 10.02168000    1.80435000    6.23541000
 H                 12.69885000    2.35344000    7.58248000
 H                 11.36532000    1.48255000    8.33053000
 H                  9.29551000    5.49754000   11.31967000
 H                  8.38557000    7.75767000   11.47788000
 H                  9.07133000    9.52002000    9.86932000
 H                 10.65003000    8.96684000    8.03874000
 H                 11.57144000    6.70222000    7.82877000
 H                  9.56978000    1.74826000    9.49476000
 H                  8.98049000    0.11591000   11.20937000
 H                  9.58735000    0.50446000   13.58316000
 H                 10.74603000    2.60070000   14.23025000
 H                 11.39479000    4.23327000   12.53349000
 H                 13.70228000    6.19903000    8.63892000
 H                 13.88619000    4.70990000    7.70270000
 H                 15.15943000    5.22831000    8.81008000
 H                 13.14999000    6.06024000   11.21379000
 H                 14.76475000    5.33889000   11.24955000
 H                 13.43490000    4.50204000   12.01588000
 H                 14.09676000    2.45256000    8.96463000
 H                 13.55208000    2.32595000   10.63717000
 H                 15.11749000    3.05108000   10.24705000

