%nprocshared=20
%mem=80GB
%chk=E29.chk
# opt freq def2svp m062x

Title Card Required

0 1
 C                  3.18628000    1.48991000   -2.93748000
 C                  3.55279000    2.96166000   -3.03809000
 O                  4.83740000    3.15073000   -2.43948000
 C(Iso=1)           4.82202000    3.32996000   -1.09601000
 O                  3.83213000    3.53137000   -0.40903000
 O(Iso=2)           6.08570000    3.16458000   -0.64602000
 C(Iso=3)           6.22752000    3.16928000    0.77234000
 C(Iso=4)           6.47934000    4.56903000    1.23174000
 C(Iso=5)           7.70699000    5.07324000    1.41957000
 C                  7.98093000    6.43559000    1.89350000
 C                  7.13496000    7.09508000    2.79401000
 C                  7.46126000    8.36237000    3.27853000
 C                  8.64280000    8.97850000    2.87597000
 C                  9.49423000    8.33279000    1.98144000
 C                  9.16555000    7.06573000    1.49437000
 H                  2.21286000    1.29427000   -3.39706000
 H                  3.15672000    1.16451000   -1.89216000
 H                  3.94578000    0.87688000   -3.43445000
 H                  2.78918000    3.59898000   -2.57530000
 H                  3.62992000    3.25722000   -4.08815000
 H                  7.07245000    2.51640000    1.01903000
 H                  5.35506000    2.74149000    1.28215000
 H                  5.59011000    5.17302000    1.39694000
 H                  8.57999000    4.46291000    1.19647000
 H                  6.21692000    6.62606000    3.14025000
 H                  6.79773000    8.86151000    3.97902000
 H                  8.90332000    9.96069000    3.26134000
 H                 10.41656000    8.81331000    1.66446000
 H                  9.84401000    6.57645000    0.79860000

