%nprocshared=20
%mem=80GB
%chk=E3.chk
# opt freq def2svp m062x

Title Card Required

0 1
 O                  5.01068000    2.05816000   -0.49567000
 C(Iso=1)           4.03550000    2.06407000    0.23865000
 O(Iso=2)           3.69048000    1.11633000    1.14705000
 C(Iso=3)           4.52888000   -0.03815000    1.23895000
 C(Iso=4)           5.00311000   -0.16475000    2.65751000
 C(Iso=5)           6.30245000   -0.19931000    2.99027000
 C                  6.77968000   -0.35010000    4.34482000
 C                  8.08960000   -0.38154000    4.64486000
 C                  8.63096000   -0.56857000    6.00019000
 C                  7.97203000   -1.34286000    6.96447000
 C                  8.52982000   -1.53308000    8.23053000
 C                  9.76200000   -0.96459000    8.54261000
 C                 10.43860000   -0.20867000    7.58792000
 C                  9.87823000   -0.01543000    6.32160000
 O                  3.07579000    3.02584000    0.28552000
 C                  3.25969000    4.12842000   -0.60097000
 H                  5.36364000   -0.02766000    0.53040000
 H                  3.90891000   -0.91073000    1.00212000
 H                  4.23257000   -0.24575000    3.41862000
 H                  7.05541000   -0.12090000    2.20888000
 H                  6.03097000   -0.44393000    5.12822000
 H                  8.83246000   -0.26047000    3.85941000
 H                  7.02182000   -1.81990000    6.73893000
 H                  8.00227000   -2.13222000    8.96776000
 H                 10.19652000   -1.11639000    9.52672000
 H                 11.40441000    0.22913000    7.82704000
 H                 10.42493000    0.57689000    5.59107000
 H                  2.40803000    4.80252000   -0.46562000
 H                  3.27213000    3.79920000   -1.64477000
 H                  4.17312000    4.67679000   -0.35167000

