%nprocshared=20
%mem=80GB
%chk=E35.chk
# opt freq def2svp m062x

Title Card Required

0 1
 C                  3.89452000    0.85504000   -3.75954000
 O                  4.13224000   -0.50119000   -3.39189000
 C(Iso=1)           4.54722000   -0.65444000   -2.11150000
 O                  4.68880000    0.24145000   -1.29333000
 O(Iso=2)           4.78645000   -1.97062000   -1.90193000
 C(Iso=3)           5.25614000   -2.31160000   -0.59929000
 C(Iso=4)           6.73201000   -2.06453000   -0.50878000
 C(Iso=5)           7.67276000   -2.99844000   -0.72737000
 C                  9.11720000   -2.76011000   -0.58251000
 C                  9.62472000   -1.86228000    0.36425000
 C                 11.00044000   -1.69134000    0.51733000
 C                 11.88997000   -2.43115000   -0.26125000
 C                 11.40641000   -3.35054000   -1.19181000
 O                 12.17418000   -4.15725000   -1.98852000
 C                 13.58424000   -4.07125000   -1.81671000
 C                 10.02315000   -3.50572000   -1.35091000
 H                  3.55249000    0.87041000   -4.79776000
 H                  4.82026000    1.43625000   -3.69188000
 H                  3.11403000    1.29467000   -3.13106000
 H                  5.02813000   -3.36912000   -0.43288000
 H                  4.72172000   -1.75548000    0.18203000
 H                  7.00912000   -1.04913000   -0.23693000
 H                  7.38202000   -3.99799000   -1.04312000
 H                  8.95719000   -1.29257000    1.00560000
 H                 11.37782000   -0.98760000    1.25427000
 H                 12.95163000   -2.27144000   -0.10882000
 H                 14.04626000   -4.85336000   -2.42631000
 H                 13.87688000   -4.25279000   -0.77659000
 H                 13.95808000   -3.10410000   -2.16859000
 H                  9.65909000   -4.22047000   -2.08596000

