%nprocshared=20
%mem=80GB
%chk=E37.chk
# opt freq def2svp m062x

Title Card Required

0 1
 C                  3.85986000   -2.46797000    3.05250000
 O                  4.08422000   -1.09041000    3.34518000
 C(Iso=1)           4.49506000   -0.37392000    2.26882000
 O                  4.65651000   -0.82218000    1.14155000
 O(Iso=2)           4.69401000    0.90786000    2.65279000
 C(Iso=3)           5.15227000    1.77323000    1.61031000
 C(Iso=4)           6.62921000    1.59327000    1.42251000
 C(Iso=5)           7.56220000    2.30959000    2.07056000
 C                  9.01672000    2.13711000    1.91764000
 C                  9.60258000    1.73296000    0.71275000
 C                 10.99250000    1.62422000    0.59005000
 C                 11.82942000    1.92576000    1.66831000
 C                 13.32011000    1.81926000    1.53494000
 C                 11.25125000    2.33574000    2.87404000
 C                  9.85957000    2.44493000    2.99465000
 H                  3.53049000   -2.96214000    3.97024000
 H                  4.78507000   -2.94714000    2.71529000
 H                  3.07239000   -2.57773000    2.29964000
 H                  4.91274000    2.80369000    1.89792000
 H                  4.60986000    1.58376000    0.67514000
 H                  6.90979000    0.81048000    0.72195000
 H                  7.24895000    3.05716000    2.79704000
 H                  8.98947000    1.50608000   -0.15521000
 H                 11.41389000    1.30662000   -0.36051000
 H                 13.60880000    1.48778000    0.53152000
 H                 13.71595000    1.09335000    2.25211000
 H                 13.78807000    2.79339000    1.71040000
 H                 11.88005000    2.57589000    3.72888000
 H                  9.44243000    2.76795000    3.94603000

