%nprocshared=20
%mem=80GB
%chk=E38.chk
# opt freq def2svp m062x

Title Card Required

0 1
 C                  3.88030000   -2.76405000    2.61485000
 O                  4.09605000   -1.43463000    3.08106000
 C(Iso=1)           4.46707000   -0.56890000    2.10405000
 O                  4.58869000   -0.84005000    0.91927000
 O(Iso=2)           4.69044000    0.63833000    2.67645000
 C(Iso=3)           5.14207000    1.66283000    1.78825000
 C(Iso=4)           6.61740000    1.52572000    1.57554000
 C(Iso=5)           7.54607000    2.17307000    2.29506000
 C                  8.93126000    1.98277000    2.03689000
 C                 10.02137000    2.52852000    2.70548000
 C                 11.19992000    2.04937000    2.08556000
 C                 10.78099000    1.23197000    1.06951000
 O                  9.42845000    1.18288000    1.02915000
 H                  3.57520000   -3.37801000    3.46661000
 H                  4.80622000   -3.17896000    2.20395000
 H                  3.08064000   -2.78613000    1.86797000
 H                  4.90264000    2.62536000    2.25467000
 H                  4.60081000    1.63887000    0.83431000
 H                  6.91419000    0.84950000    0.77587000
 H                  7.25701000    2.83554000    3.10571000
 H                  9.96302000    3.19970000    3.55112000
 H                 12.22382000    2.27192000    2.34823000
 H                 11.29025000    0.63982000    0.32154000

