%nprocshared=20
%mem=80GB
%chk=E39.chk
# opt freq def2svp m062x

Title Card Required

0 1
 C                  3.81228000   -4.33356000   -0.28383000
 O                  4.04249000   -3.75125000    0.99417000
 C(Iso=1)           4.45794000   -2.46099000    0.92516000
 O                  4.62410000   -1.82224000   -0.10250000
 O(Iso=2)           4.65586000   -2.01120000    2.18611000
 C(Iso=3)           5.12870000   -0.66525000    2.26810000
 C(Iso=4)           6.61041000   -0.64807000    2.03020000
 C(Iso=5)           7.50851000   -0.73419000    3.01823000
 C                  8.95115000   -0.77552000    2.75973000
 C                  9.51213000   -2.06113000    2.59606000
 C                 10.85873000   -2.22500000    2.26374000
 C                 11.66139000   -1.10625000    2.07896000
 C                 11.12034000    0.16793000    2.25057000
 C                  9.77638000    0.34958000    2.61014000
 O                  9.43340000    1.67110000    2.71108000
 C                  8.40698000    2.02834000    3.62567000
 H                  3.47150000   -5.36180000   -0.13471000
 H                  4.73915000   -4.35679000   -0.86821000
 H                  3.03127000   -3.78451000   -0.82144000
 H                  4.89465000   -0.29516000    3.27201000
 H                  4.59976000   -0.01015000    1.56651000
 H                  6.92753000   -0.57691000    0.99250000
 H                  7.20602000   -0.83058000    4.05635000
 H                  8.89203000   -2.94766000    2.71103000
 H                 11.27117000   -3.22096000    2.13202000
 H                 12.70545000   -1.22089000    1.79724000
 H                 11.75514000    1.03912000    2.10327000
 H                  8.54673000    3.08495000    3.87912000
 H                  8.45529000    1.46077000    4.56109000
 H                  7.42582000    1.94466000    3.15198000

