%nprocshared=20
%mem=80GB
%chk=E4.chk
# opt freq def2svp m062x

Title Card Required

0 1
 O                  5.00574000    0.51893000   -2.11460000
 C(Iso=1)           4.03437000    1.19414000   -1.81825000
 O(Iso=2)           3.68518000    1.61602000   -0.57792000
 C(Iso=3)           4.50157000    1.20331000    0.51993000
 C(Iso=4)           4.94943000    2.42483000    1.26959000
 C(Iso=5)           6.24217000    2.73033000    1.46987000
 C                  6.73270000    3.88298000    2.23579000
 C                  7.93607000    4.49133000    1.87978000
 N                  8.51192000    5.51777000    2.55265000
 C                  7.86039000    5.95960000    3.64773000
 C                  6.66674000    5.42160000    4.09949000
 C                  6.09997000    4.36650000    3.38374000
 O                  3.08871000    1.65827000   -2.67442000
 C                  3.26725000    1.33687000   -4.05314000
 H                  5.34616000    0.57612000    0.21812000
 H                  3.87045000    0.60545000    1.18748000
 H                  4.15720000    3.05742000    1.66403000
 H                  7.01554000    2.09533000    1.04129000
 H                  8.49716000    4.15962000    1.00972000
 H                  8.34096000    6.77961000    4.17379000
 H                  6.19248000    5.80755000    4.99498000
 H                  5.17727000    3.92026000    3.74360000
 H                  2.41418000    1.75152000   -4.60043000
 H                  3.27911000    0.25404000   -4.21381000
 H                  4.17841000    1.80059000   -4.44209000

