%nprocshared=20
%mem=80GB
%chk=E5.chk
# opt freq def2svp m062x

Title Card Required

0 1
 O                  8.38762000    2.75657000   -0.09795000
 C(Iso=1)           8.79955000    2.04920000    0.80823000
 O(Iso=2)           8.50804000    0.74204000    1.00667000
 C(Iso=3)           7.59996000    0.12595000    0.08425000
 C(Iso=4)           8.24689000   -1.13635000   -0.40724000
 C(Iso=5)           7.71619000   -2.36727000   -0.29961000
 C                  8.41203000   -3.63528000   -0.70595000
 O                  7.99564000   -3.98450000   -2.02247000
 C                  8.63752000   -5.14848000   -2.62968000
 C                  8.24668000   -6.37679000   -1.73644000
 C                  7.02808000   -7.06328000   -1.89164000
 C                  6.72070000   -8.17881000   -1.10177000
 C                  7.59863000   -8.61065000   -0.10852000
 C                  8.77446000   -7.90920000    0.11605000
 C                  9.07954000   -6.79709000   -0.67088000
 C                  8.09053000   -5.21756000   -4.09942000
 C                  7.72855000   -4.03514000   -4.78845000
 C                  7.37448000   -4.05586000   -6.14179000
 C                  7.34815000   -5.25800000   -6.84031000
 C                  7.68958000   -6.43852000   -6.19069000
 C                  8.07222000   -6.41777000   -4.84064000
 C                 10.17839000   -4.93716000   -2.79726000
 C                 11.07517000   -6.02434000   -2.84637000
 C                 12.45334000   -5.82596000   -2.94156000
 C                 12.96193000   -4.53878000   -3.07352000
 C                 12.09317000   -3.45228000   -3.11676000
 C                 10.71619000   -3.64877000   -2.98533000
 O                  9.64190000    2.44115000    1.79766000
 C                 10.06397000    3.80267000    1.72127000
 H                  7.34825000    0.76650000   -0.76659000
 H                  6.67655000   -0.09182000    0.63252000
 H                  9.21710000   -1.01440000   -0.88294000
 H                  6.74400000   -2.50023000    0.16924000
 H                  8.12563000   -4.40609000    0.01488000
 H                  9.49547000   -3.49976000   -0.64417000
 H                  6.30988000   -6.75601000   -2.64850000
 H                  5.78991000   -8.71728000   -1.26288000
 H                  7.35931000   -9.47915000    0.49851000
 H                  9.45876000   -8.22000000    0.90130000
 H                  9.99484000   -6.25601000   -0.43534000
 H                  7.76542000   -3.07548000   -4.27944000
 H                  7.13485000   -3.12675000   -6.65311000
 H                  7.07759000   -5.27330000   -7.89209000
 H                  7.67429000   -7.38045000   -6.73223000
 H                  8.37056000   -7.35708000   -4.37818000
 H                 10.71177000   -7.04844000   -2.78296000
 H                 13.12526000   -6.67948000   -2.91517000
 H                 14.03373000   -4.38402000   -3.15872000
 H                 12.48513000   -2.44772000   -3.25195000
 H                 10.05829000   -2.78248000   -3.02737000
 H                 10.70206000    4.00349000    2.58676000
 H                  9.20646000    4.48205000    1.76235000
 H                 10.65300000    3.96945000    0.81411000

