%nprocshared=20
%mem=80GB
%chk=E8.chk
# opt freq def2svp m062x

Title Card Required

0 1
 C                  3.88398000    1.06670000   -3.85012000
 O                  4.12110000   -0.30836000   -3.55511000
 C(Iso=1)           4.57072000   -0.52850000   -2.29399000
 O                  4.75079000    0.32670000   -1.44136000
 O(Iso=2)           4.79235000   -1.85710000   -2.15355000
 C(Iso=3)           5.28196000   -2.27076000   -0.87563000
 C(Iso=4)           6.76137000   -2.04488000   -0.80222000
 C(Iso=5)           7.69464000   -2.96396000   -1.09931000
 C                  9.14234000   -2.71274000   -1.01838000
 C                 10.00886000   -3.78418000   -0.76006000
 C                 11.39015000   -3.58139000   -0.67658000
 C                 11.92068000   -2.30613000   -0.86076000
 C                 11.06976000   -1.24161000   -1.14191000
 Cl                11.71955000    0.33433000   -1.37882000
 C                  9.69120000   -1.44042000   -1.23207000
 H                  3.51378000    1.13500000   -4.87692000
 H                  4.81456000    1.63860000   -3.77982000
 H                  3.12322000    1.47983000   -3.18039000
 H                  5.04236000   -3.33340000   -0.76157000
 H                  4.76737000   -1.74683000   -0.06064000
 H                  7.04743000   -1.05296000   -0.46182000
 H                  7.39485000   -3.95896000   -1.42391000
 H                  9.61605000   -4.78774000   -0.60905000
 H                 12.05059000   -4.41878000   -0.46458000
 H                 12.99382000   -2.14852000   -0.78865000
 H                  9.05297000   -0.59520000   -1.47406000

