%nprocshared=20
%mem=80GB
%chk=E9.chk
# opt freq def2svp m062x

Title Card Required

0 1
 C                  1.04364000   -1.19164000    0.75638000
 C                  2.56466000   -1.21519000    0.79004000
 C                  3.12281000    0.07463000    1.39327000
 C(Iso=5)           4.62515000    0.06915000    1.42833000
 C(Iso=4)           5.34170000    0.15157000    2.56087000
 C(Iso=3)           6.84023000    0.16345000    2.62694000
 O(Iso=2)           7.33388000   -1.17088000    2.78947000
 C(Iso=1)           7.34049000   -1.62612000    4.06502000
 O                  6.97097000   -0.99882000    5.04812000
 O                  7.81694000   -2.89792000    4.07634000
 C                  7.85869000   -3.51636000    5.37111000
 C                  6.50158000   -4.09645000    5.72910000
 H                  0.65701000   -2.11998000    0.32463000
 H                  0.67852000   -0.35660000    0.14977000
 H                  0.63122000   -1.08860000    1.76532000
 H                  2.94375000   -1.35173000   -0.23006000
 H                  2.89737000   -2.08069000    1.37598000
 H                  2.71401000    0.21088000    2.40195000
 H                  2.79223000    0.93441000    0.79832000
 H                  5.13702000   -0.01292000    0.47118000
 H                  4.82939000    0.23370000    3.51779000
 H                  7.18575000    0.82390000    3.43258000
 H                  7.26479000    0.56593000    1.70045000
 H                  8.20069000   -2.80798000    6.13498000
 H                  8.60225000   -4.31964000    5.32883000
 H                  5.73171000   -3.31866000    5.74697000
 H                  6.53146000   -4.57698000    6.71124000
 H                  6.18982000   -4.83564000    4.98412000

