%nprocshared=20
%mem=80GB
%chk=N1.chk
# opt freq def2svp m062x

Title Card Required

0 1
 C                  0.95913000    1.71560000   -1.77220000
 C                  2.43869000    1.41187000   -1.94259000
 C                  3.70786000    1.15134000   -2.08874000
 C(Iso=3)           5.18743000    0.84761000   -2.25913000
 N(Iso=2)           5.95813000    1.06255000   -1.03655000
 S(Iso=1)           7.61064000    0.70513000   -1.21555000
 O                  8.29583000    1.25246000   -0.06381000
 O                  7.68774000   -0.69940000   -1.54251000
 C                  8.10334000    1.64390000   -2.64274000
 C                  7.91698000    3.02913000   -2.63592000
 C                  8.22489000    3.77137000   -3.77715000
 C                  8.72135000    3.13862000   -4.92522000
 C                  9.01696000    3.93017000   -6.16708000
 C                  8.93188000    1.75191000   -4.90833000
 C                  8.61846000    1.00008000   -3.77165000
 H                  0.49454000    1.86861000   -2.75025000
 H                  0.83072000    2.62054000   -1.17184000
 H                  0.46249000    0.88136000   -1.26899000
 H                  5.54019000    1.50576000   -3.05705000
 H                  5.27429000   -0.19142000   -2.59487000
 H                  5.59551000    0.48115000   -0.27386000
 H                  7.52271000    3.52691000   -1.75251000
 H                  8.07386000    4.84824000   -3.76397000
 H                  8.80801000    4.99570000   -6.02277000
 H                  8.39022000    3.57885000   -6.99364000
 H                 10.07070000    3.82935000   -6.44531000
 H                  9.34232000    1.25161000   -5.78304000
 H                  8.77932000   -0.07572000   -3.77841000

