%nprocshared=20
%mem=80GB
%chk=N10.chk
# opt freq def2svp m062x

Title Card Required

0 1
 N(Iso=1)           1.54301000    0.47643000   -1.04699000
 S(Iso=2)           2.79913000    0.02996000   -0.02887000
 O                  2.19260000   -0.32525000    1.23236000
 C                  3.37362000   -1.44266000   -0.82888000
 C                  4.41268000   -1.36267000   -1.76259000
 C                  4.83168000   -2.51758000   -2.42721000
 C                  4.21133000   -3.74404000   -2.14270000
 N                  4.62346000   -4.95246000   -2.86935000
 O                  5.51762000   -4.83650000   -3.71905000
 O                  4.04621000   -6.01403000   -2.59496000
 C                  3.19133000   -3.82597000   -1.18284000
 C                  2.77536000   -2.66952000   -0.51962000
 O                  3.80329000    1.05904000   -0.15133000
 H                  0.65468000    0.44798000   -0.54510000
 H                  1.74419000    1.37813000   -1.48073000
 H                  4.88672000   -0.40859000   -1.98672000
 H                  5.62927000   -2.44456000   -3.16465000
 H                  2.70831000   -4.77328000   -0.94935000
 H                  1.97933000   -2.72774000    0.22087000

