%nprocshared=20
%mem=80GB
%chk=N11.chk
# opt freq def2svp m062x

Title Card Required

0 1
 N(Iso=1)           0.99218000    0.07066000    0.20726000
 C(Iso=2)           2.36475000    0.08779000   -0.06548000
 C                  3.06289000    1.30034000   -0.08289000
 C                  4.45104000    1.31971000   -0.23625000
 C                  5.14558000    0.12041000   -0.32368000
 F                  6.47697000    0.13624000   -0.46674000
 C                  4.47887000   -1.09498000   -0.24290000
 C                  3.09041000   -1.10861000   -0.09215000
 H                  0.50474000    0.91204000   -0.08619000
 H                  0.52248000   -0.77228000   -0.10732000
 H                  2.52934000    2.24153000    0.02092000
 H                  4.99217000    2.25932000   -0.27215000
 H                  5.04175000   -2.02179000   -0.28200000
 H                  2.57825000   -2.06198000    0.00416000

