%nprocshared=20
%mem=80GB
%chk=N12.chk
# opt freq def2svp m062x

Title Card Required

0 1
 O                  6.52442000    2.43984000   -3.30042000
 C(Iso=3)           6.09737000    1.68306000   -2.43192000
 N(Iso=1)           6.45175000    1.80688000   -1.11704000
 C(Iso=2)           6.00317000    1.15038000    0.00352000
 O                  5.19912000    0.07843000   -0.23911000
 C                  4.68020000   -0.69438000    0.88985000
 C                  3.79574000    0.16657000    1.80520000
 C                  3.81585000   -1.81515000    0.28416000
 C                  5.81119000   -1.35857000    1.68941000
 O                  6.33172000    1.54885000    1.11407000
 H                  5.39283000    0.86987000   -2.64600000
 H                  7.05742000    2.59106000   -0.91698000
 H                  3.11896000    0.80028000    1.22318000
 H                  4.39480000    0.83127000    2.43609000
 H                  3.19903000   -0.45298000    2.48478000
 H                  3.10825000   -1.42204000   -0.45311000
 H                  3.25144000   -2.35168000    1.05658000
 H                  4.43909000   -2.55058000   -0.23819000
 H                  6.45425000   -0.62542000    2.18412000
 H                  6.45814000   -1.95038000    1.03277000
 H                  5.40988000   -2.01684000    2.46832000

