%nprocshared=20
%mem=80GB
%chk=N14.chk
# opt freq def2svp m062x

Title Card Required

0 1
 C                  0.92772000    0.11630000   -0.07430000
 Si                 2.80329000    0.11081000   -0.00353000
 O(Iso=2)           3.42377000    0.50965000    1.51439000
 N(Iso=1)           2.96672000   -0.35923000    2.52085000
 C(Iso=3)           3.76991000   -1.33698000    3.02957000
 O                  4.91655000   -1.55139000    2.33792000
 C                  5.81447000   -2.64218000    2.70054000
 C                  5.14626000   -4.00587000    2.46900000
 C                  7.03355000   -2.49499000    1.77082000
 C                  6.31284000   -2.52881000    4.14553000
 O                  3.42312000   -1.96513000    4.02534000
 C                  3.44630000   -1.57569000   -0.53763000
 C                  3.51192000    1.48752000   -1.37556000
 C                  2.95910000    2.88473000   -1.03198000
 C                  5.05263000    1.49605000   -1.28952000
 C                  3.06739000    1.08243000   -2.79479000
 H                  0.51561000   -0.62772000    0.61501000
 H                  0.57937000   -0.13583000   -1.08082000
 H                  0.51601000    1.09304000    0.19491000
 H                  2.27533000    0.01570000    3.15860000
 H                  4.58368000   -4.02997000    1.53040000
 H                  4.43646000   -4.23755000    3.27108000
 H                  5.88455000   -4.81596000    2.45676000
 H                  6.73742000   -2.28855000    0.73700000
 H                  7.66707000   -3.38884000    1.78320000
 H                  7.65682000   -1.64889000    2.08665000
 H                  5.50641000   -2.65522000    4.87236000
 H                  6.75174000   -1.54293000    4.32907000
 H                  7.06362000   -3.29704000    4.36042000
 H                  3.08952000   -2.34714000    0.14977000
 H                  4.53832000   -1.58155000   -0.52417000
 H                  3.10675000   -1.82922000   -1.54062000
 H                  3.23451000    3.19090000   -0.01571000
 H                  1.86601000    2.91657000   -1.10514000
 H                  3.35537000    3.63868000   -1.72301000
 H                  5.39852000    1.69762000   -0.26926000
 H                  5.47534000    2.26764000   -1.94219000
 H                  5.47529000    0.53351000   -1.59944000
 H                  1.97584000    1.07462000   -2.89015000
 H                  3.43225000    0.08533000   -3.06438000
 H                  3.45948000    1.78601000   -3.53817000

