%nprocshared=20
%mem=80GB
%chk=N16.chk
# opt freq def2svp m062x

Title Card Required

0 1
 N(Iso=1)           2.34948000   -0.00138000   -0.19114000
 C(Iso=2)           0.96098000    0.00074000   -0.00838000
 C                  0.24983000    1.20332000   -0.03617000
 C                 -1.14686000    1.20852000    0.00917000
 C                 -1.84773000    0.00542000    0.04035000
 C                 -1.15107000   -1.20024000    0.01226000
 C                  0.24576000   -1.19950000   -0.03301000
 H                  2.80560000    0.84122000    0.14358000
 H                  2.80311000   -0.84493000    0.14466000
 H                  0.77900000    2.15034000   -0.09477000
 H                 -1.68538000    2.15219000    0.00237000
 H                 -2.93409000    0.00736000    0.06419000
 H                 -1.69280000   -2.14210000    0.00796000
 H                  0.77213000   -2.14843000   -0.08907000

