%nprocshared=20
%mem=80GB
%chk=N17.chk
# opt freq def2svp m062x

Title Card Required

0 1
 N(Iso=1)          -4.70284000    0.07596000   -0.16772000
 C(Iso=2)          -3.31625000    0.03333000    0.00860000
 C                 -2.56607000    1.21245000   -0.02967000
 C                 -1.16846000    1.17351000   -0.00234000
 C                 -0.51213000   -0.05671000    0.02081000
 I                  1.56388000   -0.12133000    0.02551000
 C                 -1.24477000   -1.24066000    0.01163000
 C                 -2.64237000   -1.19042000   -0.01556000
 H                 -5.13494000    0.93708000    0.15448000
 H                 -5.18908000   -0.74873000    0.17058000
 H                 -3.06518000    2.17541000   -0.08433000
 H                 -0.61108000    2.10621000   -0.02000000
 H                 -0.74845000   -2.20695000    0.00488000
 H                 -3.20160000   -2.12223000   -0.05961000

