%nprocshared=20
%mem=80GB
%chk=N2.chk
# opt freq def2svp m062x

Title Card Required

0 1
 N(Iso=1)           3.44098000   -0.68049000   -0.19231000
 C(Iso=2)           2.13936000   -0.20211000    0.00357000
 C                  1.88741000    1.16899000   -0.02387000
 C                  0.57769000    1.65715000    0.00716000
 C                 -0.51397000    0.77709000    0.02072000
 C                 -1.83599000    1.25004000    0.02664000
 C                 -2.91230000    0.36116000    0.01616000
 C                 -2.67787000   -1.01086000    0.00015000
 C                 -1.36929000   -1.49555000   -0.00422000
 C                 -0.27383000   -0.61386000    0.00573000
 C                  1.05277000   -1.08293000   -0.01818000
 H                  4.16698000   -0.04522000    0.12279000
 H                  3.58720000   -1.63061000    0.13240000
 H                  2.71096000    1.87644000   -0.07591000
 H                  0.41792000    2.73228000   -0.00349000
 H                 -2.03761000    2.31898000    0.03050000
 H                 -3.93003000    0.74043000    0.01444000
 H                 -3.51460000   -1.70486000   -0.01371000
 H                 -1.20698000   -2.57091000   -0.02155000
 H                  1.23987000   -2.15340000   -0.06229000

