%nprocshared=20
%mem=80GB
%chk=N21.chk
# opt freq def2svp m062x

Title Card Required

0 1
 C                 -2.15599000   -0.69381000    0.08668000
 C                 -2.11736000    0.70896000    0.02902000
 C                 -0.89694000    1.38497000   -0.07013000
 C(Iso=2)           0.26714000    0.64228000   -0.08688000
 C                  0.22417000   -0.75132000   -0.03694000
 C                 -0.97482000   -1.43737000    0.04735000
 C                  1.60773000   -1.28816000   -0.14591000
 C(Iso=3)           2.42870000    0.00011000    0.06016000
 N(Iso=1)           1.57351000    1.14767000   -0.28335000
 H                 -3.11515000   -1.20265000    0.14249000
 H                 -3.04655000    1.27416000    0.04456000
 H                 -0.87085000    2.46746000   -0.14516000
 H                 -1.00317000   -2.52221000    0.06875000
 H                  1.77505000   -1.70826000   -1.14412000
 H                  1.83742000   -2.03469000    0.61962000
 H                  3.33505000   -0.00511000   -0.55429000
 H                  2.73996000    0.08519000    1.10973000
 H                  1.73423000    1.98865000    0.26580000

