%nprocshared=20
%mem=80GB
%chk=N22.chk
# opt freq def2svp m062x

Title Card Required

0 1
 C                  0.88006000    0.03243000   -0.05047000
 C                  2.39990000    0.03059000   -0.03857000
 C                  2.93436000    0.01605000    1.39076000
 C                  4.46118000    0.01529000    1.41070000
 C                  4.98639000    0.00165000    2.84611000
 C(Iso=2)           6.51131000    0.00121000    2.86725000
 N(Iso=1)           6.99272000   -0.01018000    4.24347000
 H                  0.50789000    0.04320000   -1.07830000
 H                  0.48832000    0.91565000    0.46489000
 H                  0.48558000   -0.85844000    0.44777000
 H                  2.76829000    0.91696000   -0.56727000
 H                  2.76530000   -0.84832000   -0.58336000
 H                  2.55897000   -0.87139000    1.91528000
 H                  2.55941000    0.89331000    1.93226000
 H                  4.83701000    0.90377000    0.88874000
 H                  4.83719000   -0.86244000    0.87133000
 H                  4.60540000   -0.88659000    3.36695000
 H                  4.60366000    0.87889000    3.38361000
 H                  6.89762000    0.88856000    2.35355000
 H                  6.89482000   -0.88104000    2.34428000
 H                  6.66850000    0.82517000    4.72662000
 H                  8.01056000    0.03452000    4.24530000

