%nprocshared=20
%mem=80GB
%chk=N25.chk
# opt freq def2svp m062x

Title Card Required

0 1
 N(Iso=1)           0.42568000    2.25908000    0.17440000
 C(Iso=2)           1.03091000    1.00239000   -0.00160000
 C                  2.42747000    0.91114000    0.04091000
 C                  3.06776000   -0.33079000    0.00357000
 C                  2.31700000   -1.50330000   -0.03803000
 C                  0.92502000   -1.43579000   -0.03221000
 C                  0.28857000   -0.19159000    0.00403000
 Br                -1.61247000   -0.16012000    0.02775000
 H                  0.96494000    3.03665000   -0.19081000
 H                 -0.54529000    2.27279000   -0.12898000
 H                  3.03074000    1.81297000    0.10752000
 H                  4.15375000   -0.38017000    0.02205000
 H                  2.81529000   -2.46905000   -0.05803000
 H                  0.34492000   -2.35429000   -0.04421000

