%nprocshared=20
%mem=80GB
%chk=N26.chk
# opt freq def2svp m062x

Title Card Required

0 1
 C                  0.93918000    0.07617000    0.03836000
 C(Iso=3)           2.45975000    0.07200000    0.03182000
 N(Iso=1)           2.96441000    1.21167000    0.79483000
 C(Iso=2)           4.42571000    1.22743000    0.80477000
 C                  4.92584000    2.42030000    1.60421000
 H                  0.55856000   -0.77501000   -0.53520000
 H                  0.54411000    0.99183000   -0.41458000
 H                  0.54559000   -0.00098000    1.05741000
 H                  2.80990000    0.12585000   -1.00561000
 H                  2.81785000   -0.86940000    0.46453000
 H                  2.61423000    1.16702000    1.75188000
 H                  4.81071000    1.30029000   -0.21910000
 H                  4.81719000    0.30620000    1.25187000
 H                  4.57742000    3.36275000    1.16826000
 H                  6.02036000    2.43612000    1.61066000
 H                  4.58318000    2.37456000    2.64335000

