%nprocshared=20
%mem=80GB
%chk=N27.chk
# opt freq def2svp m062x

Title Card Required

0 1
 O                  1.07189000   -0.12162000   -0.03988000
 S(Iso=2)           2.50828000   -0.17637000   -0.14528000
 N(Iso=1)           3.05372000    1.29464000   -0.72878000
 C(Iso=3)           4.42892000    1.37574000   -1.21962000
 C                  4.79165000    2.77869000   -1.65383000
 C                  5.88675000    3.44156000   -1.08374000
 C                  6.24597000    4.72228000   -1.51522000
 C                  5.51575000    5.35238000   -2.51930000
 C                  4.42172000    4.70579000   -3.09193000
 C                  4.06019000    3.42731000   -2.66211000
 C                  3.12030000   -0.25337000    1.51800000
 C                  4.06112000   -1.23367000    1.85921000
 C                  4.48544000   -1.36708000    3.18606000
 C                  3.97253000   -0.53261000    4.18077000
 C                  3.01429000    0.42687000    3.85842000
 C                  2.58183000    0.54829000    2.52888000
 N                  1.59391000    1.56980000    2.25120000
 O                  1.93385000    2.46718000    1.46640000
 O                  0.52988000    1.51666000    2.87823000
 O                  3.16762000   -1.22415000   -0.90187000
 H                  2.74528000    2.09788000   -0.16391000
 H                  4.55171000    0.71463000   -2.08414000
 H                  5.11889000    1.04245000   -0.43616000
 H                  6.47716000    2.96697000   -0.30333000
 H                  7.10105000    5.22452000   -1.07107000
 H                  5.79972000    6.34466000   -2.85925000
 H                  3.84995000    5.19698000   -3.87687000
 H                  3.20651000    2.93229000   -3.12239000
 H                  4.45298000   -1.92002000    1.10926000
 H                  5.20964000   -2.13673000    3.44925000
 H                  4.31060000   -0.63978000    5.21007000
 H                  2.60859000    1.06804000    4.63938000

