%nprocshared=20
%mem=80GB
%chk=N28.chk
# opt freq def2svp m062x

Title Card Required

0 1
 C                  1.15138000    0.30963000   -0.54419000
 O                  2.47850000    0.04375000   -0.10345000
 C                  3.08757000   -1.03809000   -0.68039000
 C                  2.78616000   -1.55180000   -1.94101000
 C                  3.46478000   -2.67667000   -2.41141000
 C                  4.45784000   -3.27359000   -1.63329000
 C(Iso=2)           4.82489000   -2.72275000   -0.40374000
 N(Iso=1)           5.73291000   -3.39415000    0.42475000
 C                  4.10159000   -1.62902000    0.08089000
 H                  0.73584000    1.09067000    0.09974000
 H                  0.51699000   -0.57840000   -0.44615000
 H                  1.14224000    0.68907000   -1.57057000
 H                  2.03101000   -1.10224000   -2.57540000
 H                  3.21308000   -3.09615000   -3.38142000
 H                  4.95022000   -4.16969000   -1.99979000
 H                  6.41845000   -3.94499000   -0.08270000
 H                  6.16189000   -2.79414000    1.12314000
 H                  4.31553000   -1.22964000    1.06872000

