%nprocshared=20
%mem=80GB
%chk=N29.chk
# opt freq def2svp m062x

Title Card Required

0 1
 C                  1.67724000    3.07794000    2.20407000
 C                  1.71063000    1.54146000    2.36890000
 C                  1.90475000    1.20530000    3.86985000
 C                  0.34780000    0.97920000    1.91214000
 O                  2.72672000    0.92094000    1.49161000
 C(Iso=3)           4.03974000    1.15506000    1.74398000
 N(Iso=1)           5.00911000    0.57418000    0.92719000
 C(Iso=2)           5.28489000   -0.22049000   -0.18004000
 O                  4.24730000   -0.78540000   -0.86506000
 C                  4.56260000   -1.61109000   -2.03920000
 C                  5.40154000   -2.85294000   -1.67259000
 C                  3.20877000   -2.09397000   -2.58525000
 C                  5.25935000   -0.78729000   -3.14075000
 O                  6.46581000   -0.38849000   -0.48788000
 O                  4.43816000    1.85357000    2.68160000
 H                  0.98406000    3.53990000    2.91851000
 H                  1.36300000    3.36304000    1.19462000
 H                  2.66010000    3.53241000    2.35919000
 H                  0.95043000    1.15864000    4.40888000
 H                  2.47987000    1.98723000    4.38213000
 H                  2.43017000    0.25831000    4.01780000
 H                 -0.38109000    0.91929000    2.72793000
 H                  0.45695000   -0.01863000    1.47502000
 H                 -0.10769000    1.61389000    1.14287000
 H                  5.90322000    0.88108000    1.28264000
 H                  5.13075000   -3.24677000   -0.68910000
 H                  6.47503000   -2.62937000   -1.64546000
 H                  5.28487000   -3.65549000   -2.41304000
 H                  2.55486000   -2.43356000   -1.77546000
 H                  3.32858000   -2.91551000   -3.30166000
 H                  2.68566000   -1.28324000   -3.10465000
 H                  6.34902000   -0.77469000   -3.01568000
 H                  4.92597000    0.25486000   -3.12805000
 H                  5.07005000   -1.20162000   -4.13887000

