%nprocshared=20
%mem=80GB
%chk=N30.chk
# opt freq def2svp m062x

Title Card Required

0 1
 O                  1.08830000    0.17058000   -0.14658000
 S(Iso=2)           2.53372000    0.20040000   -0.08821000
 N(Iso=1)           3.05094000   -1.11246000    0.83105000
 C(Iso=3)           2.21491000   -2.32686000    0.91742000
 C                  2.03173000   -3.00883000   -0.43787000
 C                  1.15415000   -4.22406000   -0.37740000
 C                  1.52937000   -5.43595000   -0.80474000
 C                  3.18632000   -0.16097000   -1.70424000
 C                  2.31138000   -0.38779000   -2.77424000
 C                  2.82275000   -0.71106000   -4.03284000
 C                  4.21094000   -0.77618000   -4.21774000
 N                  4.74902000   -1.11027000   -5.54297000
 O                  3.93933000   -1.35898000   -6.44755000
 O                  5.98071000   -1.12711000   -5.67622000
 C                  5.08878000   -0.52641000   -3.15039000
 C                  4.57228000   -0.21997000   -1.88748000
 O                  3.25505000    1.35265000    0.40787000
 H                  3.46608000   -0.79154000    1.70798000
 H                  1.25503000   -2.07786000    1.38354000
 H                  2.71989000   -3.01871000    1.60394000
 H                  3.01424000   -3.24931000   -0.86348000
 H                  1.54089000   -2.32806000   -1.13442000
 H                  0.13770000   -4.07822000   -0.01958000
 H                  2.52196000   -5.62233000   -1.20232000
 H                  0.83352000   -6.26887000   -0.78332000
 H                  1.23307000   -0.34015000   -2.63060000
 H                  2.13188000   -0.90997000   -4.85024000
 H                  6.16820000   -0.56857000   -3.28646000
 H                  5.24800000   -0.03053000   -1.05517000

