%nprocshared=20
%mem=80GB
%chk=N31.chk
# opt freq def2svp m062x

Title Card Required

0 1
 C                  3.57671000    0.29376000   -1.58371000
 S                  2.78112000   -0.03305000    0.01220000
 C                  3.22239000    1.46426000    0.87235000
 C                  2.78835000    2.71329000    0.42479000
 C                  3.15259000    3.87554000    1.11245000
 C(Iso=2)           3.90945000    3.80498000    2.28399000
 N(Iso=1)           4.38086000    4.97537000    2.88916000
 C                  4.37649000    2.55733000    2.70268000
 C                  4.01498000    1.39133000    2.01916000
 H                  3.42722000   -0.56715000   -2.24073000
 H                  4.65133000    0.44668000   -1.45020000
 H                  3.14210000    1.17290000   -2.06665000
 H                  2.16905000    2.79950000   -0.46362000
 H                  2.83395000    4.83915000    0.72461000
 H                  3.77807000    5.78003000    2.74890000
 H                  4.63900000    4.85584000    3.86416000
 H                  5.02733000    2.47887000    3.56955000
 H                  4.37444000    0.43118000    2.38113000

