%nprocshared=20
%mem=80GB
%chk=N32.chk
# opt freq def2svp m062x

Title Card Required

0 1
 C                  1.51700000    0.42829000    0.96745000
 C                  2.39120000   -0.01278000    0.05202000
 C(Iso=2)           3.17427000    0.87385000   -0.85897000
 N(Iso=1)           4.59649000    0.65724000   -0.64970000
 H                  0.96992000   -0.26840000    1.59386000
 H                  1.33142000    1.48791000    1.11276000
 H                  2.54412000   -1.08436000   -0.06149000
 H                  2.93533000    1.92989000   -0.69477000
 H                  2.91914000    0.63464000   -1.89673000
 H                  4.83731000    0.96633000    0.29116000
 H                  5.11718000    1.26014000   -1.28339000

