%nprocshared=20
%mem=80GB
%chk=N33.chk
# opt freq def2svp m062x

Title Card Required

0 1
 C                 -1.50910000    0.02168000   -0.18950000
 C                 -0.72657000    1.26590000    0.22414000
 C(Iso=2)           0.72046000    1.19083000   -0.26029000
 N(Iso=1)           1.38510000   -0.02023000    0.22840000
 C(Iso=3)           0.68657000   -1.21123000   -0.26220000
 C                 -0.76371000   -1.24730000    0.21717000
 H                 -1.65074000    0.02665000   -1.27692000
 H                 -2.50577000    0.03494000    0.26489000
 H                 -0.74576000    1.36329000    1.31664000
 H                 -1.20957000    2.15935000   -0.18668000
 H                  1.27312000    2.06980000    0.09005000
 H                  0.75623000    1.21548000   -1.35584000
 H                  1.36597000   -0.02143000    1.24784000
 H                  1.21320000   -2.10485000    0.08857000
 H                  0.72410000   -1.23454000   -1.35863000
 H                 -0.78926000   -1.35161000    1.30904000
 H                 -1.27096000   -2.12379000   -0.20128000

