%nprocshared=20
%mem=80GB
%chk=N34.chk
# opt freq def2svp m062x

Title Card Required

0 1
 N(Iso=1)           2.98338000   -0.32356000   -1.26027000
 C(Iso=2)           2.40377000   -0.04402000    0.04892000
 C                  2.80240000    1.31649000    0.56191000
 C                  2.47050000    2.47455000   -0.15767000
 C                  2.80513000    3.73832000    0.33286000
 C                  3.47510000    3.85858000    1.54809000
 C                  3.81578000    2.71634000    2.27070000
 C                  3.48275000    1.45147000    1.77998000
 H                  2.78229000   -1.28867000   -1.51362000
 H                  3.99775000   -0.24746000   -1.18961000
 H                  2.72140000   -0.82405000    0.75045000
 H                  1.31072000   -0.09553000   -0.01265000
 H                  1.94965000    2.38887000   -1.10945000
 H                  2.54085000    4.62632000   -0.23475000
 H                  3.73046000    4.84222000    1.93282000
 H                  4.34007000    2.81027000    3.21785000
 H                  3.75291000    0.57263000    2.36064000

