%nprocshared=20
%mem=80GB
%chk=N35.chk
# opt freq def2svp m062x

Title Card Required

0 1
 O                  3.11576000    1.41791000    0.32988000
 S(Iso=2)           2.54241000    0.13152000    0.00355000
 N(Iso=1)           0.89460000    0.37813000   -0.30096000
 C(Iso=3)           0.05456000   -0.81518000   -0.17529000
 C                 -1.34919000   -0.41773000   -0.50579000
 C                 -2.08084000   -0.97708000   -1.47892000
 C                  3.14875000   -0.30680000   -1.61711000
 C                  3.70296000    0.68753000   -2.43191000
 C                  4.19910000    0.35430000   -3.69490000
 C                  4.14069000   -0.97809000   -4.12934000
 N                  4.64709000   -1.32748000   -5.46405000
 O                  5.10627000   -0.41648000   -6.16176000
 O                  4.57403000   -2.51408000   -5.81292000
 C                  3.60578000   -1.97798000   -3.30439000
 C                  3.11573000   -1.64146000   -2.03880000
 O                  2.70319000   -1.02232000    0.85898000
 H                  0.74857000    0.88296000   -1.17426000
 H                  0.07881000   -1.18437000    0.85430000
 H                  0.39921000   -1.60194000   -0.85183000
 H                 -1.80254000    0.34694000    0.12367000
 H                 -1.68368000   -1.76169000   -2.11600000
 H                 -3.11112000   -0.67461000   -1.64538000
 H                  3.76356000    1.72019000   -2.08864000
 H                  4.62992000    1.13562000   -4.31840000
 H                  3.56865000   -3.01774000   -3.62807000
 H                  2.72080000   -2.42087000   -1.38937000

