%nprocshared=20
%mem=80GB
%chk=N36.chk
# opt freq def2svp m062x

Title Card Required

0 1
 C                  1.28493000    0.15765000   -0.12269000
 C                  0.57669000   -1.12958000    0.24528000
 C(Iso=3)          -0.83535000   -0.87253000   -0.23321000
 N(Iso=1)          -1.08162000    0.52760000    0.12738000
 C(Iso=2)           0.20547000    1.22529000   -0.01246000
 H                  1.64745000    0.09989000   -1.15596000
 H                  2.14128000    0.35594000    0.52881000
 H                  0.59463000   -1.27374000    1.33249000
 H                  1.03044000   -2.00541000   -0.22696000
 H                 -1.56196000   -1.54340000    0.23395000
 H                 -0.90931000   -0.99104000   -1.32035000
 H                 -1.35719000    0.56158000    1.10981000
 H                  0.37692000    1.86651000    0.85908000
 H                  0.19865000    1.86683000   -0.90011000

