%nprocshared=20
%mem=80GB
%chk=N37.chk
# opt freq def2svp m062x

Title Card Required

0 1
 C                 -5.46401000   -2.46603000   -5.27996000
 C                 -4.99879000   -1.84362000   -3.99526000
 C                 -4.08353000   -0.78255000   -3.99856000
 C                 -3.66199000   -0.20966000   -2.79708000
 C                 -4.17042000   -0.69230000   -1.58709000
 S(Iso=2)          -3.63935000    0.05808000   -0.06570000
 O                 -4.31783000   -0.60372000    1.02593000
 O                 -2.19804000    0.16237000   -0.12720000
 N(Iso=1)          -4.25765000    1.61993000   -0.18870000
 C(Iso=3)          -5.70843000    1.75768000   -0.10837000
 C                 -6.09354000    3.17451000   -0.16736000
 C                 -6.47438000    4.31476000   -0.20562000
 C                 -6.97223000    5.65610000   -0.24714000
 C                 -6.09126000    6.73750000   -0.19651000
 C                 -6.58131000    8.04589000   -0.24599000
 C                 -7.95322000    8.27490000   -0.34496000
 C                 -8.83739000    7.19721000   -0.39052000
 C                 -8.34910000    5.88922000   -0.34119000
 C                 -5.06828000   -1.76105000   -1.56702000
 C                 -5.48002000   -2.33303000   -2.77232000
 H                 -5.00530000   -1.98525000   -6.15021000
 H                 -6.55004000   -2.36374000   -5.37421000
 H                 -5.19911000   -3.52793000   -5.30341000
 H                 -3.68743000   -0.40084000   -4.93761000
 H                 -2.93439000    0.59818000   -2.81241000
 H                 -3.79081000    2.17567000   -0.90215000
 H                 -6.07286000    1.32952000    0.83108000
 H                 -6.18242000    1.22970000   -0.94243000
 H                 -5.02008000    6.57067000   -0.11624000
 H                 -5.89228000    8.88531000   -0.20641000
 H                 -8.33398000    9.29256000   -0.38458000
 H                 -9.90761000    7.37563000   -0.46407000
 H                 -9.04771000    5.05749000   -0.37487000
 H                 -5.44456000   -2.15972000   -0.62755000
 H                 -6.17709000   -3.16896000   -2.75548000

