%nprocshared=20
%mem=80GB
%chk=N4.chk
# opt freq def2svp m062x

Title Card Required

0 1
 C                  0.89207000   -0.18640000    0.81853000
 C                  2.39966000   -0.17766000    0.99367000
 O                  2.95202000   -1.29503000    0.29712000
 C                  4.31199000   -1.45088000    0.37566000
 C                  5.18947000   -0.59754000    1.04497000
 C                  6.56037000   -0.85316000    1.02917000
 C                  7.05624000   -1.97212000    0.36089000
 C(Iso=2)           6.18950000   -2.87049000   -0.26282000
 N(Iso=1)           6.70445000   -3.92167000   -1.03309000
 C                  4.82334000   -2.56950000   -0.29409000
 H                  0.43944000    0.66367000    1.33578000
 H                  0.46192000   -1.11171000    1.21653000
 H                  0.62469000   -0.13852000   -0.24233000
 H                  2.62959000   -0.24762000    2.06311000
 H                  2.79708000    0.75708000    0.58192000
 H                  4.84430000    0.28533000    1.57079000
 H                  7.24495000   -0.17129000    1.52660000
 H                  8.13048000   -2.13811000    0.33287000
 H                  7.60586000   -4.25866000   -0.71003000
 H                  6.04282000   -4.67692000   -1.18301000
 H                  4.13843000   -3.21119000   -0.84238000

