%nprocshared=20
%mem=80GB
%chk=N42.chk
# opt freq def2svp m062x

Title Card Required

0 1
 O                  1.05277000   -0.04386000    0.15676000
 S(Iso=2)           2.48721000    0.00583000   -0.02276000
 N(Iso=1)           3.12356000    0.84680000    1.30406000
 C(Iso=3)           4.46244000    1.42174000    1.08398000
 C                  5.01048000    2.18602000    2.26810000
 C                  6.40087000    2.23275000    2.46286000
 C                  6.95587000    3.01741000    3.47412000
 C                  6.12874000    3.76997000    4.30319000
 C                  4.74671000    3.73411000    4.12403000
 C                  4.18916000    2.95180000    3.10817000
 C                  3.10818000   -1.63636000    0.24782000
 C                  2.31764000   -2.56499000    0.93090000
 C                  2.80205000   -3.85607000    1.14664000
 C                  4.06990000   -4.22492000    0.67901000
 C                  4.60814000   -5.60465000    0.92348000
 C                  4.84009000   -3.29143000   -0.02971000
 C                  4.35839000   -2.00087000   -0.25635000
 O                  3.08457000    0.51879000   -1.23874000
 H                  3.08416000    0.27700000    2.15009000
 H                  4.42512000    2.12220000    0.24179000
 H                  5.15705000    0.60980000    0.84470000
 H                  7.06602000    1.67196000    1.80940000
 H                  8.03455000    3.05391000    3.60233000
 H                  6.56211000    4.39441000    5.08016000
 H                  4.10326000    4.33201000    4.76449000
 H                  3.11025000    2.96357000    2.96448000
 H                  1.32616000   -2.29723000    1.28971000
 H                  2.18011000   -4.57338000    1.67885000
 H                  3.89537000   -6.22156000    1.48058000
 H                  5.53128000   -5.54770000    1.50934000
 H                  4.81466000   -6.10471000   -0.02798000
 H                  5.81928000   -3.57196000   -0.41377000
 H                  4.95960000   -1.29497000   -0.82474000

