%nprocshared=20
%mem=80GB
%chk=N43.chk
# opt freq def2svp m062x

Title Card Required

0 1
 O                  2.82689000   -0.65209000    0.77934000
 C(Iso=2)           2.17608000    0.07321000    0.04189000
 N(Iso=1)           2.77324000    0.95087000   -0.83035000
 C(Iso=3)           2.12794000    1.71999000   -1.75699000
 O                  0.91902000    1.84816000   -1.88210000
 O                  3.02631000    2.31042000   -2.59219000
 C                  2.45088000    2.72412000   -3.84146000
 C                  2.37486000    4.21987000   -4.01504000
 C                  3.41945000    4.91665000   -4.63752000
 C                  3.31934000    6.29067000   -4.86776000
 C                  2.17585000    6.98402000   -4.47597000
 C                  1.13377000    6.30513000   -3.84734000
 C                  1.23307000    4.93057000   -3.61412000
 O                  0.82522000    0.09474000   -0.04237000
 C                  0.03714000   -0.68937000    0.85570000
 C                 -0.85457000    0.24776000    1.63404000
 C                 -1.68364000    1.16645000    0.96749000
 C                 -2.52833000    2.01602000    1.68506000
 C                 -2.55661000    1.95669000    3.07660000
 C                 -1.73501000    1.05354000    3.74948000
 C                 -0.88820000    0.20421000    3.03320000
 H                  3.78061000    0.92041000   -0.86447000
 H                  1.46214000    2.28234000   -4.02360000
 H                  3.08952000    2.29978000   -4.62393000
 H                  4.31221000    4.38884000   -4.96452000
 H                  4.13294000    6.81970000   -5.35721000
 H                  2.09806000    8.05279000   -4.65865000
 H                  0.24129000    6.84584000   -3.54153000
 H                  0.40413000    4.41331000   -3.13294000
 H                  0.64004000   -1.32345000    1.51425000
 H                 -0.59637000   -1.34885000    0.25073000
 H                 -1.66785000    1.22795000   -0.12038000
 H                 -3.16370000    2.72329000    1.15812000
 H                 -3.21730000    2.61324000    3.63611000
 H                 -1.75523000    1.00911000    4.83507000
 H                 -0.25454000   -0.49285000    3.57668000

