%nprocshared=20
%mem=80GB
%chk=N44.chk
# opt freq def2svp m062x

Title Card Required

0 1
 C                  0.98718000   -0.17639000    0.03996000
 C                  2.29514000    0.10853000    0.08932000
 C                  3.03313000    0.43561000    1.31880000
 C                  2.68807000   -0.10233000    2.56395000
 C                  3.40541000    0.24672000    3.70788000
 C                  4.49382000    1.11397000    3.61270000
 C(Iso=2)           4.90870000    1.59954000    2.37067000
 N(Iso=1)           5.92280000    2.56274000    2.29729000
 C                  4.14502000    1.28918000    1.23869000
 H                  0.50818000   -0.39796000   -0.90862000
 H                  0.35571000   -0.18028000    0.92220000
 H                  2.86795000    0.12659000   -0.83500000
 H                  1.85122000   -0.78874000    2.66112000
 H                  3.10850000   -0.14799000    4.67569000
 H                  5.01960000    1.40358000    4.51745000
 H                  6.59963000    2.50135000    3.05185000
 H                  6.36683000    2.62102000    1.38611000
 H                  4.41519000    1.72890000    0.28182000

