%nprocshared=20
%mem=80GB
%chk=N5.chk
# opt freq def2svp m062x

Title Card Required

0 1
 C                  1.09398000   -0.07561000    0.03943000
 C                  2.59285000   -0.06042000    0.04741000
 C                  3.32812000   -1.24544000    0.04246000
 C                  4.73429000   -1.22685000    0.02602000
 C                  5.46504000   -2.54409000    0.00078000
 C(Iso=2)           5.42946000    0.00468000    0.05165000
 N(Iso=1)           6.82630000    0.01602000   -0.12613000
 C                  4.68833000    1.20495000    0.02167000
 C                  5.30861000    2.57670000   -0.01490000
 C                  3.28045000    1.15421000    0.03915000
 H                  0.70127000   -1.09739000    0.03759000
 H                  0.71747000    0.42885000   -0.85660000
 H                  0.70603000    0.43225000    0.92820000
 H                  2.80356000   -2.19942000    0.03552000
 H                  4.77158000   -3.39262000   -0.00696000
 H                  6.09165000   -2.64453000    0.89166000
 H                  6.08554000   -2.61908000   -0.89907000
 H                  7.28867000   -0.83002000    0.18502000
 H                  7.28726000    0.83943000    0.24012000
 H                  6.39906000    2.56954000   -0.03518000
 H                  5.00486000    3.14130000    0.87367000
 H                  4.97162000    3.11413000   -0.90806000
 H                  2.71374000    2.08433000    0.02866000

