%nprocshared=20
%mem=80GB
%chk=N6.chk
# opt freq def2svp m062x

Title Card Required

0 1
 C                  3.04601000    0.49631000    1.44766000
 C                  2.63595000    0.00566000    0.04602000
 C                  3.02362000   -1.46841000   -0.18073000
 C                  1.10217000    0.09468000   -0.03175000
 O                  3.17773000    0.87319000   -1.00441000
 C(Iso=2)           4.54164000    0.93398000   -1.09448000
 O                  5.27499000    0.30336000   -0.34679000
 N(Iso=1)           4.97817000    1.76801000   -2.08857000
 C(Iso=3)           6.32257000    1.91000000   -2.28252000
 O                  7.17089000    1.27895000   -1.68245000
 O                  6.64216000    2.83869000   -3.23699000
 C                  8.07396000    3.06503000   -3.45393000
 C                  8.78459000    1.79509000   -3.96370000
 C                  8.20318000    4.13505000   -4.54975000
 C                  8.74781000    3.63037000   -2.18859000
 H                  2.58660000   -0.11439000    2.23198000
 H                  2.74374000    1.53938000    1.59365000
 H                  4.12520000    0.46444000    1.61606000
 H                  2.56817000   -2.11980000    0.57271000
 H                  4.10179000   -1.64130000   -0.13323000
 H                  2.70392000   -1.80510000   -1.17327000
 H                  0.63271000   -0.53298000    0.73673000
 H                  0.73180000   -0.23109000   -1.00930000
 H                  0.75707000    1.12375000    0.11445000
 H                  4.32078000    2.29582000   -2.63584000
 H                  8.30856000    1.42606000   -4.87881000
 H                  8.75565000    0.96632000   -3.25176000
 H                  9.84203000    1.98817000   -4.17225000
 H                  7.73818000    3.80627000   -5.48494000
 H                  9.25681000    4.36254000   -4.75415000
 H                  7.70594000    5.06505000   -4.25456000
 H                  8.72618000    2.93784000   -1.34308000
 H                  8.23482000    4.53897000   -1.85361000
 H                  9.80004000    3.87148000   -2.37283000

