%nprocshared=20
%mem=80GB
%chk=N8.chk
# opt freq def2svp m062x

Title Card Required

0 1
 N(Iso=1)          -3.39150000    0.00581000   -0.15718000
 C(Iso=2)          -2.00229000    0.00524000    0.00718000
 C                 -1.29058000   -1.19751000   -0.03315000
 C                  0.10736000   -1.20218000   -0.01416000
 C                  0.80117000    0.00525000    0.00390000
 Cl                 2.52116000    0.00504000    0.00895000
 C                  0.10779000    1.21208000   -0.00698000
 C                 -1.29023000    1.20804000   -0.02694000
 H                 -3.84883000   -0.83663000    0.17731000
 H                 -3.84803000    0.84969000    0.17458000
 H                 -1.82014000   -2.14529000   -0.08333000
 H                  0.64359000   -2.14642000   -0.03165000
 H                  0.64411000    2.15667000   -0.01851000
 H                 -1.81978000    2.15613000   -0.07209000

