%nprocshared=20
%mem=80GB
%chk=N9.chk
# opt freq def2svp m062x

Title Card Required

0 1
 O                  1.19908000   -0.00780000   -0.02400000
 S(Iso=2)           2.63042000   -0.03051000   -0.14511000
 N(Iso=1)           3.29705000    0.99364000    1.03567000
 C(Iso=3)           4.63707000    1.49206000    0.65349000
 C                  5.27489000    2.43331000    1.64461000
 C                  6.67568000    2.44774000    1.75215000
 C                  7.32129000    3.39915000    2.54149000
 C                  6.57606000    4.35011000    3.23265000
 C                  5.18433000    4.33593000    3.15059000
 C                  4.53547000    3.38454000    2.35851000
 C                  3.18206000   -1.65336000    0.35999000
 C                  2.40129000   -2.46198000    1.19610000
 C                  2.86790000   -3.73623000    1.55069000
 C                  4.09517000   -4.19582000    1.04605000
 N                  4.58559000   -5.52923000    1.41852000
 O                  3.88391000   -6.20723000    2.18301000
 O                  5.67311000   -5.89397000    0.95190000
 C                  4.85961000   -3.39356000    0.18867000
 C                  4.39613000   -2.12385000   -0.15702000
 O                  3.30799000    0.26712000   -1.39653000
 H                  3.35216000    0.51266000    1.93613000
 H                  4.58609000    2.02355000   -0.30381000
 H                  5.28307000    0.61616000    0.54296000
 H                  7.27779000    1.73162000    1.19652000
 H                  8.40685000    3.41202000    2.59843000
 H                  7.07940000    5.11043000    3.82422000
 H                  4.60399000    5.08371000    3.68568000
 H                  3.44987000    3.41324000    2.28272000
 H                  1.44300000   -2.12356000    1.58396000
 H                  2.26754000   -4.35555000    2.21577000
 H                  5.80903000   -3.73686000   -0.21623000
 H                  4.98686000   -1.49835000   -0.82203000

