%nprocshared=20
%mem=80GB
%chk=E10.chk
# opt freq scrf=(smd,solvent=thf) def2svp m062x

Title Card Required

0 1
 C(Iso=4)           1.67716425    4.30466353   -0.31323826
 H                  2.13627760    5.09660638    0.24078473
 C(Iso=3)           2.43275415    3.50398210   -1.10352944
 H                  1.97364073    2.71203945   -1.65755266
 C(Iso=2)           3.95215911    3.73392198   -1.20420826
 H                  4.45047665    3.15942235   -0.45152650
 H                  4.16604459    4.77239098   -1.06021137
 O(Iso=1)           4.41121242    3.32736626   -2.49606063
 C                  5.82208849    3.54088163   -2.58954804
 O                  6.36204049    4.47226457   -1.93797440
 O                  6.61938308    2.69600577   -3.42345820
 C                  7.93732767    2.59448167   -2.87791737
 H                  8.53390472    1.96230184   -3.50189211
 H                  8.37934438    3.56772334   -2.82973171
 H                  7.88488825    2.17745425   -1.89392640
 C                  0.15775994    4.07472085   -0.21255606
 C                 -0.44247738    4.95112072    0.84687232
 H                 -0.01705801    2.99627426    0.02069742
 H                 -0.29498095    4.29366425   -1.21009900
 H                  0.01057044    4.73193596    1.84426061
 H                 -0.26728606    6.02950098    0.61346608
 C                 -1.96192820    4.72166001    0.94795147
 C                 -2.56060129    5.59352924    2.01199313
 H                 -2.13719778    3.64225625    1.17638886
 H                 -2.41548751    4.94549089   -0.04813392
 H                 -2.10673534    5.36945753    3.00792248
 H                 -2.38495852    6.67286715    1.78340232
 C                 -4.08009793    5.36454869    2.11347150
 C                 -4.67394345    6.24176698    3.18554272
 H                 -4.25995416    4.28635444    2.34283421
 H                 -4.53834385    5.59153522    1.12053753
 C                 -6.16247530    6.04205415    3.31133331
 H                 -4.18171381    6.01618603    4.16865575
 H                 -4.45935131    7.31790319    2.94984179
 H                 -6.57819880    6.70171177    4.11058066
 H                 -6.67500791    6.28682505    2.34961698
 H                 -6.39658878    4.98147167    3.57183220

