%nprocshared=20
%mem=80GB
%chk=E21.chk
# opt freq scrf=(smd,solvent=thf) def2svp m062x

Title Card Required

0 1
 C                 -4.50648900   -2.37334800   -0.02913400
 C                 -3.26578200   -1.78312000    0.19768500
 C                 -3.08722100   -0.39619000    0.13570600
 C                 -4.21169700    0.40943600   -0.16866700
 C                 -5.46142300   -0.17972500   -0.39682500
 C                 -5.60221900   -1.56537100   -0.32564500
 H                 -4.61525200   -3.45727700    0.02322800
 H                 -2.40624600   -2.41649100    0.42415100
 C(Iso=4)          -1.78225400    0.24851800    0.36411100
 H                 -1.75449300    1.32647500    0.18627800
 C(Iso=3)          -0.65939100   -0.36035700    0.76629700
 H                 -0.63206000   -1.43686200    0.96366800
 C(Iso=2)           0.61743200    0.37451600    1.00348100
 H                  0.91681300    0.32387100    2.06288700
 H                  0.53028100    1.43584800    0.72770000
 O(Iso=1)           1.63879800   -0.24801500    0.21415600
 C                  2.86735300    0.23820700    0.37293200
 O                  3.14659400    1.15088700    1.10679600
 O                  3.68754800   -0.44922700   -0.40290900
 C                  5.11618700   -0.15601400   -0.43499100
 C                  5.65243800   -1.16996700   -1.43488800
 H                  5.18145900   -1.02668400   -2.41783200
 H                  6.73910100   -1.05020000   -1.54389900
 H                  5.44346300   -2.19355000   -1.09257800
 C                  5.34388300    1.26551600   -0.93506100
 H                  4.83599700    1.41395400   -1.89958500
 H                  4.97318400    2.00641800   -0.21663500
 H                  6.42059400    1.42878400   -1.08566900
 C                  5.72411000   -0.38964700    0.94276900
 H                  5.48263700   -1.40275200    1.29690000
 H                  6.81778100   -0.30142200    0.87477000
 H                  5.35809500    0.34221300    1.67266200
 H                 -6.58210400   -2.01176900   -0.50524200
 H                 -4.10582442    1.47272000   -0.22450732
 O                 -6.60115107    0.62712124   -0.70491440
 C                 -7.75611968    0.08976746   -0.05514644
 H                 -8.53521365    0.82316290   -0.04853391
 H                 -8.08942423   -0.77992220   -0.58187975
 H                 -7.50792807   -0.17601407    0.95116420

