%mem=80GB
%nprocshared=20
%chk=E22.chk
# def2svp m062x

T

0 1
 C                  3.32737900   -1.57279100   -0.22559600
 C                  1.99602500   -1.20747500   -0.39570400
 C                  1.60612400    0.12944600   -0.23603400
 C                  2.59428100    1.06923500    0.09113200
 C                  3.93440200    0.71522600    0.26210300
 C                  4.31150900   -0.63319000    0.10405600
 H                  3.61569900   -2.61933700   -0.35034500
 H                  1.25999900   -1.97151800   -0.65214300
 H                  2.30398300    2.11620900    0.21642500
 C(Iso=4)           0.21325200    0.58718000   -0.38741300
 H                  0.06017900    1.66260100   -0.24030000
 C(Iso=3)          -0.85250400   -0.16770600   -0.68048200
 H                 -0.75971500   -1.24835400   -0.82957400
 C(Iso=2)          -2.22093000    0.40170900   -0.85068300
 H                 -2.58529600    0.26858100   -1.88212000
 H                 -2.24141400    1.47732300   -0.62110800
 O(Iso=1)          -3.10609800   -0.29722900    0.03463000
 C                 -4.37761600    0.07830200   -0.01201100
 O                 -4.82535900    0.94343100   -0.71633600
 O                 -5.07248200   -0.65408700    0.84652100
 C                 -6.45830800   -0.34391200    0.93722000
 H                 -6.88013000   -1.04206600    1.66738800
 H                 -6.60146700    0.68992900    1.28005400
 H                 -6.95128300   -0.47448700   -0.03552500
 C                  4.96542900    1.75497500    0.60609400
 H                  4.50768800    2.74666700    0.71777000
 H                  5.48447300    1.50855600    1.54539500
 H                  5.73917300    1.82114500   -0.17504600
 C                  5.74463800   -1.04777800    0.28992900
 H                  6.41067600   -0.50476200   -0.39881600
 H                  6.09391100   -0.82302600    1.31020700
 H                  5.87294600   -2.12371500    0.11356200

