%mem=80GB
%nprocshared=20
%chk=E24.chk
# def2svp m062x

T

0 1
 C                 -3.95131100   -1.80474700   -0.04194500
 C                 -2.65826800   -1.39827900    0.27459400
 C                 -2.28202600   -0.04781200    0.20670400
 C                 -3.24209500    0.91718700   -0.17350000
 C                 -4.53761600    0.49091200   -0.48562000
 C                 -4.89678000   -0.85462000   -0.42583800
 H                 -4.22137400   -2.86036800    0.02012800
 H                 -1.92719700   -2.14073100    0.60122700
 C(Iso=4)          -0.90223000    0.37160500    0.52326000
 H                 -0.76550000    1.41276500    0.83282000
 C(Iso=3)           0.18314000   -0.40948700    0.46061100
 H                  0.11223100   -1.44745600    0.11856200
 C(Iso=2)           1.53998700    0.05374600    0.87241000
 H                  1.88147300   -0.47752300    1.77549000
 H                  1.54982700    1.13210400    1.09093800
 O(Iso=1)           2.45298100   -0.23294900   -0.19385500
 C                  3.73252000   -0.00068900    0.06969100
 O                  4.16480600    0.43245600    1.10435100
 O                  4.45481600   -0.32284700   -0.99349200
 C                  5.86031600   -0.14591000   -0.85695300
 H                  6.30037700   -0.45233000   -1.81131400
 H                  6.10194600    0.90582400   -0.65203000
 H                  6.25303100   -0.77233600   -0.04449900
 H                 -5.91577800   -1.15780100   -0.67346600
 H                 -5.27942300    1.23544500   -0.78428000
 C                 -2.89133500    2.37976200   -0.25453300
 H                 -2.56732000    2.77141000    0.72229000
 H                 -2.07000500    2.56007000   -0.96431500
 H                 -3.75892200    2.96762900   -0.58086600

