%mem=80GB
%nprocshared=20
%chk=E30.chk
# def2svp m062x

T

0 1
 C                 -3.31474800   -1.10137500    0.42788300
 C                 -1.97052200   -0.75368400    0.48176100
 C                 -1.52760300    0.50071700    0.03048200
 C                 -2.47913300    1.39629500   -0.47844100
 C                 -3.83063800    1.06448600   -0.53788600
 C                 -4.23698800   -0.18630500   -0.08192100
 H                 -1.25733100   -1.47765300    0.87906400
 C(Iso=4)          -0.11184500    0.90883400    0.06490000
 H                  0.09791000    1.89013300   -0.37528500
 C(Iso=3)           0.90706000    0.20908600    0.57746800
 H                  0.75113300   -0.77665800    1.02795500
 C(Iso=2)           2.30827000    0.72107500    0.60302300
 H                  2.65883600    0.87075400    1.63663500
 H                  2.39811000    1.68005400    0.07154600
 O(Iso=1)           3.14562200   -0.25894800   -0.02256800
 C                  4.44842800   -0.00943900    0.01927300
 O                  4.95774100    0.96026800    0.51389600
 O                  5.09416700   -1.00277700   -0.57365500
 C                  6.51014800   -0.86975100   -0.62743000
 H                  6.88245700   -1.77347400   -1.12026500
 H                  6.79504200    0.01831000   -1.20803400
 H                  6.93196900   -0.79064200    0.38350800
 H                 -2.15338900    2.37552400   -0.83620800
 H                 -3.65256100   -2.07724800    0.77794100
 H                 -4.56235600    1.76876400   -0.93525100
 Cl                -5.92262600   -0.62210900   -0.14809700

