%nprocshared=20
%mem=80GB
%chk=E5.chk
# opt freq scrf=(smd,solvent=thf) def2svp m062x

Title Card Required

0 1
 C(Iso=4)           1.67716425    4.30466353   -0.31323826
 H                  2.13601693    5.09772316    0.23940146
 C(Iso=3)           2.43308430    3.50256766   -1.10177747
 H                  1.97423155    2.70950822   -1.65441742
 C(Iso=2)           3.95248926    3.73250754   -1.20245628
 H                  4.45066143    3.15951224   -0.44853261
 H                  4.16620166    4.77127729   -1.06038450
 O(Iso=1)           4.41196816    3.32353944   -2.49339558
 C                  5.82284423    3.53705481   -2.58688299
 O                  6.36248966    4.46975117   -1.93693617
 O                  6.62048719    2.69068644   -3.41894447
 C                  7.93828654    2.59037365   -2.87282901
 H                  8.53512426    1.95707705   -3.49542048
 H                  8.38016616    3.56376187   -2.82637747
 H                  7.88561487    2.17522282   -1.88805723
 C                  0.15775994    4.07472085   -0.21255606
 C                 -0.45873061    3.99719825    1.01164860
 C                 -0.59700184    3.94435710   -1.40378794
 C                 -1.86200078    3.78514650    1.10213751
 H                  0.11977237    4.09744803    1.94226809
 C                 -1.95325775    3.73891245   -1.34608996
 H                 -0.07994078    4.01011286   -2.37239839
 C                 -2.61765351    3.65452288   -0.09164299
 C                 -2.52612354    3.70090599    2.35638259
 H                 -2.54818042    3.63602750   -2.26595672
 C                 -4.02088967    3.44234783   -0.00205533
 C                 -3.88284727    3.49565650    2.41327306
 H                 -1.93118418    3.80368874    3.27613356
 C                 -4.63733442    3.36510800    1.22212295
 H                 -4.59904542    3.34211582   -0.93287227
 H                 -4.39983808    3.42999303    3.38193480
 H                 -5.72265591    3.20111955    1.29406093

