%nprocshared=20
%mem=80GB
%chk=E7.chk
# opt freq scrf=(smd,solvent=thf) def2svp m062x

Title Card Required

0 1
 C(Iso=4)           1.67716425    4.30466353   -0.31323826
 H                  2.13627760    5.09660638    0.24078473
 C(Iso=3)           2.43275415    3.50398210   -1.10352944
 H                  1.97364073    2.71203945   -1.65755266
 C(Iso=2)           3.95215911    3.73392198   -1.20420826
 H                  4.45047665    3.15942235   -0.45152650
 H                  4.16604459    4.77239098   -1.06021137
 O(Iso=1)           4.41121242    3.32736626   -2.49606063
 C                  5.82208849    3.54088163   -2.58954804
 O                  6.36204049    4.47226457   -1.93797440
 O                  6.61938308    2.69600577   -3.42345820
 C                  7.93732767    2.59448167   -2.87791737
 H                  8.53390472    1.96230184   -3.50189211
 H                  8.37934438    3.56772334   -2.82973171
 H                  7.88488825    2.17745425   -1.89392640
 C                  0.15775994    4.07472085   -0.21255606
 C                 -0.88388753    4.67189476    0.46708200
 O                 -0.31758641    3.01235916   -0.98213761
 C                 -2.08343460    3.94563253    0.10594284
 H                 -0.83708160    5.51950458    1.14399301
 C                 -1.69568248    2.95307586   -0.77025693
 H                 -3.08481742    4.15896340    0.46741952
 H                 -2.20034696    2.16169748   -1.31522960

