%nprocshared=20
%mem=80GB
%chk=E9.chk
# opt freq scrf=(smd,solvent=thf) def2svp m062x

Title Card Required

0 1
 C(Iso=4)           1.67716425    4.30466353   -0.31323826
 H                  2.13601693    5.09772316    0.23940146
 C(Iso=3)           2.43308430    3.50256766   -1.10177747
 H                  1.97423155    2.70950822   -1.65441742
 C(Iso=2)           3.95248926    3.73250754   -1.20245628
 H                  4.45066143    3.15951224   -0.44853261
 H                  4.16620166    4.77127729   -1.06038450
 O(Iso=1)           4.41196816    3.32353944   -2.49339558
 C                  5.82284423    3.53705481   -2.58688299
 O                  6.36248966    4.46975117   -1.93693617
 O                  6.62048719    2.69068644   -3.41894447
 C                  7.93828654    2.59037365   -2.87282901
 H                  8.53512426    1.95707705   -3.49542048
 H                  8.38016616    3.56376187   -2.82637747
 H                  7.88561487    2.17522282   -1.88805723
 C                  0.15775994    4.07472085   -0.21255606
 C                 -0.18258300    3.51397305    1.15525910
 C                 -0.57331003    5.37283336   -0.48232669
 H                 -0.11890353    3.32829866   -1.00327434
 C                 -1.58596006    3.88232051    1.59776135
 H                  0.55072328    3.89561486    1.91323290
 H                 -0.07507479    2.39778921    1.12875665
 C                 -2.07725588    5.17340819   -0.49686823
 H                 -0.30150324    6.11750975    0.31158885
 H                 -0.24040787    5.79684355   -1.46498018
 C                 -2.52075646    4.04796442    0.41898265
 H                 -1.55524826    4.84256922    2.17754184
 H                 -1.98303314    3.09111245    2.28541320
 H                 -2.41876178    4.94925253   -1.54135817
 H                 -2.57450154    6.13009923   -0.18817289
 H                 -2.55397785    3.08623028   -0.15807630
 H                 -3.55960264    4.25118333    0.78761990

