%chk=D:\Quantom Chemistry\Data\Mechanic study\Data-part1\N1.chk
# freq def2svp rm062x

Title Card Required

0 1
 C(Iso=2)           0.00000000    0.73506846   -0.00000000
 C(Iso=3)           0.51256740   -0.58251247    0.00000000
 C                 -0.37023698   -1.67461767   -0.00000000
 C                 -1.73231130   -1.41045915    0.00000000
 C                 -2.22617025   -0.08739561    0.00000000
 C                 -1.37318247    1.00773973    0.00000000
 C(Iso=5)           2.20211720    0.71750452    0.00000000
 H                  0.01643317   -2.69491488   -0.00000000
 H                 -2.44209001   -2.23941255   -0.00000000
 H                 -3.30506627    0.07706524    0.00000000
 H                 -1.75253449    2.03026338    0.00000000
 N(Iso=1)           1.11488924    1.53924668    0.00000000
 N(Iso=4)           1.89414627   -0.55098727   -0.00000000
 H                  3.21326114    1.12375616    0.00000000
 H                  1.13004636    2.55345997    0.00000000

