%chk=D:\Quantom Chemistry\Data\Mechanic study\Data-part1\N12.chk
# freq def2svp rm062x

Title Card Required

0 1
 C(Iso=3)           0.18059902   -0.52161434   -0.00007084
 C(Iso=2)           0.71291229    0.77059795   -0.00011477
 C                 -1.29170593    1.69897059    0.00011706
 C                 -1.23416573   -0.61295086    0.00006669
 C(Iso=5)           2.28460223   -0.76879441    0.00033444
 H                 -1.92957616    2.58878835    0.00005076
 N(Iso=4)           1.17941752   -1.46582057    0.00013149
 N(Iso=1)           2.06769427    0.58248253   -0.00013718
 H                  2.77596485    1.31057178   -0.00010035
 N                 -1.93748948    0.52685071    0.00026222
 N                  0.01607943    1.91255254   -0.00010407
 N                 -1.87164520   -1.79138191   -0.00128084
 H                 -1.34744388   -2.65668266    0.00229523
 H                 -2.88373740   -1.81316737    0.00380515
 H                  3.29294565   -1.17954678   -0.00014770

