%chk=D:\Quantom Chemistry\Data\Mechanic study\Data-part1\N13.chk
# freq def2svp rm062x

Title Card Required

0 1
 C(Iso=1)          -0.77520065    1.59845170    0.31419427
 C(Iso=2)          -0.75668944    2.94765382   -0.09599854
 C                  0.79756887    2.56221462   -1.62461318
 C                  0.10867669    0.75822472   -0.37537092
 C(Iso=5)          -2.15801604    2.61039745    1.55851834
 H                  1.45528190    2.91762676   -2.42232544
 N(Iso=4)          -1.66125712    1.42011791    1.34717408
 N(Iso=1)          -1.65637562    3.56849609    0.72288744
 H                 -1.90157016    4.55506415    0.71381138
 N                  0.87560100    1.25786695   -1.33230053
 N                  0.00816720    3.46057199   -1.05142366
 N                  0.24485461   -0.60980073   -0.06498405
 C                 -0.87349049   -1.44961646    0.14758410
 O                 -0.81073667   -2.45918825    0.78987661
 O                 -1.92999787   -0.95633262   -0.47072262
 C                  1.53948007   -1.19558928   -0.04998714
 O                  1.75452798   -2.31416116   -0.41754015
 O                  2.40724531   -0.32835855    0.43425667
 C                 -3.26093852   -1.53250191   -0.27846263
 C                 -3.30138948   -2.92125272   -0.90221915
 C                 -3.61618726   -1.55258902    1.20359485
 C                 -4.16139467   -0.56809029   -1.03478311
 H                 -3.01003812   -2.87517027   -1.96182001
 H                 -2.62978270   -3.60994363   -0.37481249
 H                 -4.32624714   -3.31503727   -0.84187840
 H                 -3.41227865   -0.56843285    1.64889083
 H                 -4.68723125   -1.77634597    1.31044537
 H                 -3.04375139   -2.31436638    1.74611075
 H                 -5.20323760   -0.91359431   -0.98627703
 H                 -4.10169615    0.43708136   -0.59334881
 H                 -3.85940036   -0.50749908   -2.09002007
 C                  3.84721331   -0.52049742    0.28121301
 C                  4.30186807   -1.68838968    1.14610538
 C                  4.18414329   -0.71872630   -1.19188663
 C                  4.42047724    0.79322858    0.79042546
 H                  4.00046127   -1.52931755    2.19177278
 H                  3.87571256   -2.63446741    0.79057735
 H                  5.39840292   -1.75987230    1.10993447
 H                  3.71608314    0.07491238   -1.79273610
 H                  5.27398198   -0.66238515   -1.32295308
 H                  3.83933026   -1.69285383   -1.55974126
 H                  5.51776594    0.76666725    0.74335591
 H                  4.05945551    1.63061317    0.17589165
 H                  4.11771107    0.96669816    1.83287630
 H                 -2.90091939    2.85667513    2.31592423

