%chk=D:\Quantom Chemistry\Data\Mechanic study\Data-part1\N14.chk
# freq def2svp rm062x

Title Card Required

0 1
 C(Iso=2)          -0.83069991    0.05908024    0.00003428
 C(Iso=3)          -0.35029230   -1.26770123   -0.00017033
 C                  1.78562294   -0.61509633   -0.00055429
 C                  0.17688753    1.02411878   -0.00001594
 C(Iso=5)          -2.54265091   -1.17960652    0.00009322
 N(Iso=1)          -2.20143304    0.08087605    0.00037504
 N(Iso=4)          -1.47615798   -2.03789799    0.00003811
 H                 -1.51387624   -3.05370209    0.00002525
 N                  1.44368908    0.68790503   -0.00028993
 N                  0.92464110   -1.62834689   -0.00036894
 Cl                -0.24608463    2.70578372    0.00034254
 H                 -3.56490349   -1.55535049   -0.00024370
 N                  3.17444535   -0.89478126   -0.00013031
 H                  3.38626713   -1.48353731    0.80782641
 H                  3.38645554   -1.48478749   -0.80712064

