%chk=D:\Quantom Chemistry\Data\Mechanic study\Data-part1\N15.chk
# freq def2svp rm062x

Title Card Required

0 1
 C(Iso=2)           1.62231251    0.77807512    0.00004865
 C(Iso=3)           1.83901545   -0.62890723   -0.00015097
 C                  3.13022176   -1.18452456   -0.00023660
 C                  4.19949389   -0.30706515   -0.00021778
 C                  4.00700535    1.09585277    0.00013912
 C                  2.73743949    1.64356000    0.00021473
 C(Iso=4)           0.20499995    0.97870906   -0.00003957
 C(Iso=5)          -0.36270263   -0.27540598    0.00001285
 H                  3.27758081   -2.26528813   -0.00045495
 H                  5.21625890   -0.70395148   -0.00047562
 H                  4.87955862    1.75112104    0.00043867
 H                  2.59391075    2.72566242    0.00058509
 H                 -0.33659027    1.92079143   -0.00003472
 N(Iso=1)           0.61716411   -1.23589570   -0.00002975
 H                  0.43128372   -2.23368040   -0.00027800
 C                 -1.77302745   -0.70453763    0.00015663
 O                 -2.10945223   -1.86407591    0.00016944
 O                 -2.61535573    0.32163105    0.00028820
 C                 -4.01265927    0.00054740    0.00031765
 C                 -4.78470038    1.29571085   -0.00060904
 H                 -4.23556011   -0.60967512    0.88828566
 H                 -4.23532205   -0.61087160   -0.88687915
 H                 -5.86232346    1.08300333   -0.00004419
 H                 -4.54712911    1.89158927    0.89177808
 H                 -4.54774479    1.89004013   -0.89418774

