%chk=D:\Quantom Chemistry\Data\Mechanic study\Data-part1\N17.chk
# freq def2svp rm062x

Title Card Required

0 1
 C(Iso=3)          -1.28994232   -0.53631520   -0.00018123
 C(Iso=2)          -1.39920358    0.88314228   -0.00016516
 C                 -2.64472254    1.53402251   -0.00005642
 C                 -3.78032268    0.74582445    0.00015411
 C                 -3.66655582   -0.65884854    0.00008523
 C                 -2.46248105   -1.32283247   -0.00019260
 C(Iso=4)           0.10551492   -0.84553501   -0.00022947
 C(Iso=5)           0.76737828    0.36258650   -0.00003312
 H                 -2.71349330    2.62226484   -0.00009753
 H                 -4.77804960    1.18672480    0.00018343
 H                 -2.43425438   -2.41294956   -0.00027507
 H                  0.57135238   -1.82692473   -0.00027821
 N(Iso=1)          -0.13298103    1.39477899   -0.00002073
 H                  0.12872125    2.37554992    0.00001011
 C                  2.20867999    0.67776237    0.00008306
 O                  2.63601651    1.80644988   -0.00012678
 O                  2.96390701   -0.41309550    0.00044275
 C                  4.38330170   -0.20745989    0.00014072
 C                  5.04916704   -1.56049308   -0.00014826
 H                  4.65390686    0.38366455    0.88761447
 H                  4.65348619    0.38392043   -0.88728748
 H                  6.14019719   -1.43346524   -0.00006500
 H                  4.76719903   -2.13599960    0.89272652
 H                  4.76728680   -2.13565429   -0.89326814
 F                 -4.80552854   -1.37206027    0.00017923

