%chk=D:\Quantom Chemistry\Data\Mechanic study\Data-part1\N18.chk
# freq def2svp rm062x

Title Card Required

0 1
 C(Iso=3)          -0.93535344   -0.35176328    0.00061506
 C(Iso=2)          -0.94537639    1.07113850    0.00026906
 C                 -2.14277748    1.80619425   -0.00016342
 C                 -3.33047157    1.10035127   -0.00042092
 C                 -3.32408377   -0.31395328   -0.00000467
 C                 -2.15903614   -1.05360046    0.00077851
 C(Iso=4)           0.43677696   -0.75767676    0.00101826
 C(Iso=5)           1.17971153    0.40154028    0.00049508
 H                 -2.13731319    2.89670574   -0.00010025
 H                 -4.28528426    1.62675334   -0.00050016
 H                 -2.18809783   -2.14367537    0.00105282
 H                  0.83268199   -1.76952941    0.00153716
 N(Iso=1)           0.35064778    1.49404443    0.00007261
 H                  0.67859234    2.45482680   -0.00051306
 C                  2.63876529    0.62495361    0.00020534
 O                  3.13320216    1.72581249   -0.00054580
 O                  3.32581310   -0.50957670    0.00111060
 C                  4.75537619   -0.38929602   -0.00035948
 C                  5.34065894   -1.77896411   -0.00108488
 H                  5.06097594    0.18455264    0.88698628
 H                  5.05912665    0.18491611   -0.88807098
 H                  6.43734477   -1.71522995   -0.00212119
 H                  5.02727262   -2.33702150    0.89223615
 H                  5.02553435   -2.33683833   -0.89389685
 Cl                -4.86603709   -1.14042361   -0.00057202

