%chk=D:\Quantom Chemistry\Data\Mechanic study\Data-part1\N19.chk
# freq def2svp rm062x

Title Card Required

0 1
 C(Iso=3)          -0.68859787   -0.27335603    0.00023560
 C(Iso=2)          -0.66274532    1.15302850   -0.00020669
 C                 -1.83928942    1.92561433   -0.00031156
 C                 -3.04479932    1.25655480   -0.00023694
 C                 -3.06443347   -0.15547784    0.00005714
 C                 -1.92477424   -0.93772631    0.00050424
 C(Iso=4)           0.67343782   -0.71603412    0.00010065
 C(Iso=5)           1.44275344    0.42234302    0.00003955
 H                 -1.79884704    3.01494597   -0.00051065
 H                 -3.98804889    1.79990246   -0.00020399
 H                 -2.00004661   -2.02429297    0.00079960
 H                  1.04120819   -1.73839818    0.00042782
 N(Iso=1)           0.63900771    1.53793983   -0.00030243
 H                  0.99221709    2.49040245    0.00030513
 C                  2.90803834    0.61399183    0.00004245
 O                  3.42249117    1.70506741    0.00006848
 O                  3.56874831   -0.53421863    0.00030393
 C                  5.00201917   -0.44654433    0.00030419
 C                  5.55478591   -1.84915033   -0.00048722
 H                  5.31867036    0.11977628    0.88847034
 H                  5.31875841    0.12080863   -0.88716401
 H                  6.65260095   -1.81054733   -0.00160491
 H                  5.22883636   -2.39979505    0.89283508
 H                  5.22699034   -2.39923425   -0.89348225
 N                 -4.36837146   -0.83035812   -0.00000850
 O                 -5.36308558   -0.14080418    0.00050498
 O                 -4.38129930   -2.04080724   -0.00062040

