%chk=D:\Quantom Chemistry\Data\Mechanic study\Data-part1\N2.chk
# freq def2svp rm062x

Title Card Required

0 1
 C(Iso=2)          -1.82692493    0.69654638   -0.00067040
 C(Iso=3)          -1.80747455   -0.71733943    0.00064348
 C                 -3.01559404   -1.43157618    0.00134475
 C                 -4.20040513   -0.70854143    0.00067615
 C                 -4.20088047    0.70288184   -0.00062034
 C                 -3.01819172    1.43097718   -0.00131935
 C(Iso=5)           0.23652303   -0.09210533   -0.00011024
 H                 -3.00993120   -2.52263845    0.00233769
 H                 -5.15415400   -1.23897258    0.00117054
 H                 -5.15383750    1.23492548   -0.00107516
 H                 -3.01730008    2.52160155   -0.00229232
 N(Iso=1)          -0.50158448    1.05963098   -0.00087531
 N(Iso=4)          -0.50242404   -1.17201999    0.00094110
 H                 -0.12429146    2.00177950   -0.00161850
 C                  1.72320568   -0.05137061   -0.00002857
 C                  2.42604014   -0.03026951    1.21024177
 C                  2.42622072   -0.03322676   -1.21023974
 C                  3.81974198    0.00699668    1.20819611
 H                  1.87838417   -0.04901342    2.15454471
 C                  3.81992241    0.00403575   -1.20807860
 H                  1.87869947   -0.05431513   -2.15457150
 C                  4.51705073    0.02418663    0.00008809
 H                  4.36329502    0.02003955    2.15441654
 H                  4.36361544    0.01475164   -2.15424789
 H                  5.60817667    0.05139368    0.00013652

