%chk=D:\Quantom Chemistry\Data\Mechanic study\Data-part1\N22.chk
# freq def2svp rm062x

Title Card Required

0 1
 C(Iso=3)          -0.03383155   -0.20195374    0.00006952
 C(Iso=2)           0.85305807    0.90124660    0.00022596
 C                  2.24430688    0.74390730    0.00014555
 C                  2.73527322   -0.55391722   -0.00013837
 C                  1.86762601   -1.66657602   -0.00001546
 C                  0.48923611   -1.50688302   -0.00010096
 C(Iso=4)          -1.36876994    0.35091724    0.00005219
 C(Iso=5)          -1.22681113    1.72847378   -0.00014507
 H                  2.91106698    1.60742913   -0.00001466
 H                  3.81420556   -0.71785289   -0.00054219
 H                  2.29293528   -2.67163924    0.00018578
 H                 -0.18557673   -2.36289435    0.00005728
 N(Iso=1)           0.08804969    2.05103350    0.00003230
 H                  0.45719350    2.99624086   -0.00012167
 H                 -1.99614570    2.49922109   -0.00045575
 C                 -2.63355066   -0.36445288   -0.00002272
 O                 -2.74105075   -1.57228695    0.00004929
 H                 -3.54084277    0.28598420   -0.00015306

