%chk=D:\Quantom Chemistry\Data\Mechanic study\Data-part1\N23.chk
# freq def2svp rm062x

Title Card Required

0 1
 C(Iso=3)           0.62916955   -0.29382361    0.00123517
 C(Iso=2)           1.45321337    0.86477340    0.00084599
 C                  2.85305408    0.78013217   -0.00069279
 C                  3.41975735   -0.48579581   -0.00227396
 C                  2.61867719   -1.64921837   -0.00224770
 C                  1.23446169   -1.56511445   -0.00012735
 C(Iso=4)          -0.73464152    0.16717928    0.00273342
 C(Iso=5)          -0.68218404    1.53762587    0.00318666
 H                  3.47055292    1.68000299   -0.00059527
 H                  4.50672744   -0.58538875   -0.00363079
 H                  3.10129568   -2.62812268   -0.00385105
 H                  0.62329431   -2.47066382    0.00034496
 N(Iso=1)           0.62659235    1.95637012    0.00203893
 H                  0.93069352    2.92257989    0.00139648
 H                 -1.50111872    2.25212560    0.00375990
 C                 -1.97128664   -0.67285161    0.00853921
 H                 -1.97281462   -1.36122005   -0.86187329
 H                 -1.99180193   -1.31893340    0.91063883
 O                 -3.09664505    0.15916897   -0.02241908
 C                 -4.29860724   -0.55481645    0.00338759
 H                 -5.12450955    0.16808774   -0.02107318
 H                 -4.39374768   -1.22904463   -0.86825278
 H                 -4.39124015   -1.16590795    0.92069886

