%chk=D:\Quantom Chemistry\Data\Mechanic study\Data-part1\N24.chk
# freq def2svp rm062x

Title Card Required

0 1
 C(Iso=3)          -0.02415211   -0.27825436    0.00012502
 C(Iso=2)           0.79241662    0.87708707    0.00034149
 C                  2.19117915    0.79963723    0.00050625
 C                  2.75644766   -0.46609333   -0.00029651
 C                  1.95542502   -1.62932814   -0.00018383
 C                  0.57170470   -1.55049784   -0.00012870
 C(Iso=4)          -1.38756253    0.19929363    0.00000239
 C(Iso=5)          -1.33377304    1.58190759   -0.00032494
 H                  2.80492576    1.70146696    0.00055776
 H                  3.84297448   -0.56663600   -0.00090824
 H                  2.43896716   -2.60748595    0.00039844
 H                 -0.04482634   -2.45155894    0.00026134
 N(Iso=1)          -0.03867312    1.97639648   -0.00017384
 H                  0.27109820    2.94293531    0.00011949
 H                 -2.14869535    2.30220739   -0.00054794
 C                 -2.56761605   -0.59432443    0.00003504
 N                 -3.51687837   -1.25603837    0.00012554

