%chk=D:\Quantom Chemistry\Data\Mechanic study\Data-part1\N25.chk
# freq def2svp rm062x

Title Card Required

0 1
 C(Iso=3)          -1.13972729   -0.13265011    0.02320272
 C(Iso=2)          -2.23416188    0.76436613   -0.10176104
 C                 -3.56834632    0.33802056   -0.03374387
 C                 -3.79882502   -1.01274803    0.17310992
 C                 -2.72840662   -1.92124239    0.32011758
 C                 -1.41001372   -1.49739948    0.25035015
 C(Iso=4)           0.06455214    0.66393497   -0.08159835
 C(Iso=5)          -0.35559855    1.96610222   -0.25711819
 H                 -4.38965695    1.04903987   -0.13634850
 H                 -4.82513195   -1.37980763    0.23044403
 H                 -2.94524160   -2.97627350    0.49620524
 H                 -0.59719506   -2.21363170    0.38134020
 N(Iso=1)          -1.72028018    2.02383167   -0.27102150
 H                 -2.26775882    2.86636128   -0.40395399
 H                  0.23873576    2.86661707   -0.39970301
 C                  1.46517838    0.21095190   -0.03140574
 C                  1.84076093   -1.04123975   -0.54465028
 C                  2.46705134    1.03321630    0.51113453
 C                  3.17055535   -1.45837683   -0.50917247
 H                  1.08614165   -1.68475285   -1.00004430
 C                  3.79724219    0.62041367    0.53483625
 H                  2.19261875    2.00199084    0.93428881
 C                  4.15552380   -0.63017337    0.02896280
 H                  3.44025147   -2.43537992   -0.91502383
 H                  4.55792613    1.27689103    0.96191336
 H                  5.19656352   -0.95693072    0.05444842

