%chk=D:\Quantom Chemistry\Data\Mechanic study\Data-part1\N26.chk
# freq def2svp rm062x

Title Card Required

0 1
 C(Iso=3)           0.67068706    0.57861175    0.00023158
 C(Iso=2)           0.62091294   -0.84292582   -0.00024569
 C                  1.79119172   -1.62332552   -0.00030499
 C                  3.00225059   -0.95418793   -0.00002121
 C                  3.07178466    0.46036516    0.00006724
 C                  1.92202250    1.22921154    0.00036129
 C(Iso=7)          -0.68346942    1.05510061   -0.00010393
 C(Iso=8)          -1.47796055   -0.07975398    0.00016995
 H                  1.74087706   -2.71292722   -0.00016211
 H                  3.92913335   -1.53099710    0.00040564
 H                  4.04964998    0.94441996   -0.00026356
 H                  1.97668213    2.32004533    0.00024421
 N(Iso=1)          -0.68967306   -1.21048446   -0.00001754
 H                 -1.06227649   -2.15399741   -0.00003692
 C                 -2.93158840   -0.21455291   -0.00001621
 O                 -3.48945832   -1.29012946    0.00019051
 H                 -3.50517896    0.73688487   -0.00031924
 C                 -1.10978414    2.48771049   -0.00022729
 H                 -2.20237804    2.59016598    0.00027884
 H                 -0.71928119    3.01181758    0.88528235
 H                 -0.72013156    3.01149445   -0.88629488

