%chk=D:\Quantom Chemistry\Data\Mechanic study\Data-part1\N27.chk
# freq def2svp rm062x

Title Card Required

0 1
 C(Iso=3)           1.86037626    0.32470445   -0.01143546
 C(Iso=2)           1.71985194   -1.07650844    0.12343875
 C                  2.82095359   -1.93546497    0.21686859
 C                  4.08148169   -1.35659136    0.16373533
 C                  4.24293504    0.03700152    0.01850290
 C                  3.14824590    0.88541899   -0.07064010
 C(Iso=4)           0.52376560    0.86930053   -0.07107961
 C(Iso=5)          -0.35528131   -0.20891701    0.03559774
 H                  2.68991329   -3.01309410    0.32445434
 H                  4.96535821   -1.99326031    0.23132927
 H                  5.25106381    0.45297011   -0.02282970
 H                  3.26685983    1.96296971   -0.18135630
 N(Iso=1)           0.36946754   -1.35721817    0.13926489
 H                 -0.03463474   -2.27752286    0.28477334
 C                  0.17197874    2.25739487   -0.32807961
 O                  0.98016932    3.15975622   -0.40534065
 H                 -0.91256151    2.46114402   -0.48180754
 C                 -1.82745409   -0.24546709    0.03721578
 C                 -2.50456303   -1.24815262   -0.67386072
 C                 -2.56759507    0.70387596    0.75700294
 C                 -3.89640921   -1.29267552   -0.67151527
 H                 -1.93634078   -1.98338651   -1.24787739
 C                 -3.96002663    0.65745247    0.75208047
 H                 -2.04677171    1.46383283    1.34200434
 C                 -4.62701901   -0.33856834    0.03808981
 H                 -4.41366094   -2.07307179   -1.23214614
 H                 -4.52656266    1.39866384    1.31808236
 H                 -5.71773261   -0.37358826    0.03771518

