%chk=D:\Quantom Chemistry\Data\Mechanic study\Data-part1\N28.chk
# freq def2svp rm062x

Title Card Required

0 1
 C(Iso=3)           1.98826997   -0.21921727   -0.00652286
 C(Iso=2)           2.02406159   -1.63679504    0.02601523
 C                  3.22828042   -2.35509741    0.03579338
 C                  4.40730947   -1.62636691   -0.00044180
 C                  4.39498003   -0.21513846   -0.05497611
 C                  3.20271229    0.49238826   -0.06160064
 C(Iso=4)           0.59757840    0.16859728   -0.00416537
 C(Iso=5)          -0.13607747   -1.00804703    0.03373204
 H                  3.23201726   -3.44573313    0.06666264
 H                  5.36291042   -2.15371992    0.00668585
 H                  5.34255615    0.32490777   -0.09403796
 H                  3.20417179    1.58312985   -0.11031181
 N(Iso=1)           0.72852860   -2.07900681    0.03772819
 H                  0.44127225   -3.04529223    0.15002045
 C                 -1.59070622   -1.23705533    0.09314149
 C                 -2.16074372   -2.33343982   -0.57169085
 C                 -2.42332766   -0.38336675    0.83344079
 C                 -3.53328722   -2.56634246   -0.50300018
 H                 -1.52718789   -2.99888457   -1.16270517
 C                 -3.79469530   -0.61591579    0.89400140
 H                 -1.98568110    0.45779551    1.37401283
 C                 -4.35466506   -1.70667015    0.22584185
 H                 -3.96450054   -3.42071937   -1.02778944
 H                 -4.42977699    0.05358389    1.47686034
 H                 -5.42961110   -1.88802839    0.27684899
 C                  0.09025919    1.55290439   -0.08810616
 C                  0.62406476    2.55263069    0.73998415
 C                 -0.91904013    1.90668928   -0.99783495
 C                  0.15946790    3.86561184    0.66445851
 H                  1.40104274    2.29078323    1.46156538
 C                 -1.38842539    3.21649602   -1.06642332
 H                 -1.33367995    1.14341678   -1.65987246
 C                 -0.85039920    4.20212430   -0.23651913
 H                  0.58461618    4.62758187    1.32053614
 H                 -2.17530920    3.47148621   -1.77891833
 H                 -1.21624011    5.22880230   -0.29441964

