%chk=D:\Quantom Chemistry\Data\Mechanic study\Data-part1\N29.chk
# freq def2svp rm062x

Title Card Required

0 1
 C(Iso=3)           1.88917174    0.54941807   -0.06716853
 C(Iso=2)           1.80191692   -0.85294462    0.13453308
 C                  2.94179749   -1.66133863    0.25274878
 C                  4.17872471   -1.04108604    0.15582051
 C                  4.28820914    0.35123694   -0.05490357
 C                  3.15944547    1.14889726   -0.16695974
 C(Iso=4)           0.54463690    1.05949375   -0.13366723
 C(Iso=5)          -0.28968516   -0.03183084    0.03296032
 H                  2.85532307   -2.73730590    0.41262199
 H                  5.08661988   -1.64119756    0.24085568
 H                  5.27926704    0.80239299   -0.12916444
 H                  3.25218106    2.22561574   -0.32575044
 N(Iso=1)           0.47380565   -1.17502323    0.17815502
 H                  0.10044697   -2.09459257    0.38469660
 C                 -1.75840420   -0.11933040    0.02986597
 C                 -2.39913229   -1.25143026   -0.50037488
 C                 -2.54617138    0.91359993    0.56176730
 C                 -3.78866693   -1.34432791   -0.50343371
 H                 -1.80278195   -2.05852680   -0.93198172
 C                 -3.93657484    0.82025155    0.55019870
 H                 -2.06483560    1.78395496    1.01012648
 C                 -4.56298424   -0.30718500    0.01810309
 H                 -4.26937331   -2.22906581   -0.92473313
 H                 -4.53495139    1.63040121    0.97093039
 H                 -5.65191433   -0.37886399    0.01293304
 C                  0.17490753    2.48586492   -0.39935207
 H                 -0.82382851    2.56795052   -0.85009153
 H                  0.17983580    3.09699912    0.51770288
 H                  0.89422648    2.94166835   -1.09605908

