%chk=D:\Quantom Chemistry\Data\Mechanic study\Data-part1\N3.chk
# freq def2svp rm062x

Title Card Required

0 1
 C(Iso=2)           0.20481463    0.69594283    0.00002421
 C(Iso=3)           0.18029003   -0.71812960   -0.00000525
 C                  1.38575068   -1.43501700   -0.00001467
 C                  2.57453079   -0.71594772    0.00001388
 C                  2.57979306    0.69410756    0.00004213
 C                  1.39760725    1.42570397    0.00003816
 C(Iso=5)          -1.86677335   -0.08614544    0.00005469
 H                  1.37721064   -2.52616209   -0.00005566
 H                  3.52623660   -1.25017327    0.00000433
 H                  3.53414004    1.22375589    0.00005353
 H                  1.40050825    2.51644357    0.00003746
 N(Iso=1)          -1.12069598    1.06196544   -0.00005022
 N(Iso=4)          -1.12711825   -1.16635177   -0.00012795
 H                 -1.48965930    2.00696532   -0.00010825
 C                 -3.35670316   -0.04756080    0.00004472
 H                 -3.73442917    0.47769362    0.88917335
 H                 -3.73441397    0.47788451   -0.88897667
 H                 -3.74075310   -1.07342608   -0.00006814

