%chk=D:\Quantom Chemistry\Data\Mechanic study\Data-part1\N30.chk
# freq def2svp rm062x

Title Card Required

0 1
 C                 -3.15505610   -1.15668966    0.04681926
 C                 -3.55472666    0.19533514    0.00165981
 C                 -2.62062153    1.22230684   -0.03627493
 C(Iso=2)          -1.26519291    0.86864137   -0.02803777
 C(Iso=3)          -0.84021370   -0.48895492    0.01544029
 C                 -1.81132958   -1.50609352    0.05418017
 H                 -3.91721846   -1.93755869    0.07755342
 H                 -4.61885044    0.43900489   -0.00308630
 H                 -2.92880883    2.26882652   -0.07014063
 H                 -1.51098728   -2.55585205    0.09024138
 C(Iso=5)           0.97676333    0.84861290   -0.02537066
 C                  2.38475441    1.35154557   -0.03834021
 C                  3.33053620    0.21376389    0.36412614
 C                  2.97907408   -1.09155666   -0.35468560
 C                  1.58863310   -1.60154448    0.04274794
 C(Iso=4)           0.59949217   -0.47266565    0.01109493
 H                  2.64065198    1.71820675   -1.04755486
 H                  4.36911877    0.50268365    0.14780064
 H                  3.00286689   -0.91516770   -1.44365141
 H                  1.27231470   -2.41151822   -0.63378812
 H                  2.49107392    2.21011711    0.64319655
 H                  3.26190501    0.05333252    1.45324587
 H                  3.73690368   -1.85897278   -0.13908895
 H                  1.63005679   -2.04588097    1.05309415
 N(Iso=1)          -0.13902791    1.65300009   -0.05232256
 H                 -0.12850827    2.66557341   -0.08172004

