%chk=D:\Quantom Chemistry\Data\Mechanic study\Data-part1\N4.chk
# freq def2svp rm062x

Title Card Required

0 1
 C(Iso=2)          -0.88355939    0.19976661    0.00000000
 C(Iso=3)           0.00000000   -0.90380350    0.00000000
 C                 -0.51083874   -2.20956514    0.00000000
 C                 -1.89010415   -2.36506438    0.00000000
 C                 -2.75739651   -1.25241267    0.00000000
 C                 -2.27353112    0.04964077    0.00000000
 C(Iso=5)           1.21274783    0.83016449    0.00000000
 H                  0.16459249   -3.06599407    0.00000000
 H                 -2.31678560   -3.36930754    0.00000000
 H                 -3.83571270   -1.41969185    0.00000000
 H                 -2.94204408    0.91096255    0.00000000
 N(Iso=1)          -0.06193422    1.30675638    0.00000000
 N(Iso=4)           1.31245549   -0.46023196    0.00000000
 H                 -0.33939162    2.28388987    0.00000000
 Cl                 2.53716384    1.92012429    0.00000000

