%chk=D:\Quantom Chemistry\Data\Mechanic study\Data-part1\N6.chk
# freq def2svp rm062x

Title Card Required

0 1
 C(Iso=2)          -0.57288060    1.00074727   -0.00000690
 C(Iso=3)          -1.14494734   -0.24953038    0.00001769
 C(Iso=5)           0.96934816   -0.56700106   -0.00000297
 H                  1.96306914   -1.01115338    0.00005121
 N(Iso=4)          -0.17257836   -1.21445916   -0.00001637
 N(Iso=1)           0.77627307    0.77416094    0.00001686
 H                  1.50187391    1.48418180   -0.00008649
 H                 -2.20488711   -0.49738053   -0.00001500
 H                 -0.99504030    2.00114461   -0.00000004

