%chk=D:\Quantom Chemistry\Data\Mechanic study\Data-part1\N7.chk
# freq def2svp rm062x

Title Card Required

0 1
 C(Iso=2)           0.73014870    1.13094998   -0.22354667
 C(Iso=3)          -0.65823606    1.23200383   -0.18305615
 C(Iso=4)           0.08137811    3.24455478   -0.28542215
 N(Iso=1)           1.16255977    2.43575261   -0.29134058
 N(Iso=5)          -1.02976946    2.55331195   -0.20911460
 H                  2.13000083    2.73341209   -0.37429444
 H                  0.16394327    4.32798658   -0.34767658
 C                  1.69641350    0.02840651   -0.07699496
 C                  2.93160289    0.27544184    0.54856275
 C                  1.42872335   -1.27310228   -0.52685631
 C                  3.86838910   -0.74229352    0.70897340
 H                  3.15686048    1.27148829    0.93598238
 C                  2.36362338   -2.29238744   -0.35406908
 H                  0.48849371   -1.49120611   -1.02864485
 C                  3.58793538   -2.03311953    0.26054182
 H                  4.81919446   -0.52693561    1.19983668
 H                  2.13247890   -3.29713491   -0.71239635
 H                  4.32023518   -2.83178274    0.39003534
 C                 -1.70180905    0.18685231   -0.04263369
 C                 -2.55682393    0.22577269    1.06852144
 C                 -1.91639158   -0.79245937   -1.02147246
 C                 -3.57778969   -0.71116634    1.21381665
 H                 -2.41207950    1.00153097    1.82307949
 C                 -2.93602858   -1.73340831   -0.87503350
 H                 -1.29643127   -0.80142432   -1.92027858
 C                 -3.76599409   -1.69839164    0.24489068
 H                 -4.22986488   -0.67170475    2.08835449
 H                 -3.08914070   -2.48948041   -1.64728392
 H                 -4.56407115   -2.43412190    0.35914204

