%chk=D:\Quantom Chemistry\Data\Mechanic study\Data-part1\N9.chk
# freq def2svp rm062x

Title Card Required

0 1
 C(Iso=2)          -1.87301964    1.11036410   -0.00039519
 C(Iso=3)          -1.01482801    0.02734155    0.00003158
 C(Iso=5)          -3.00452484   -0.77437326    0.00020913
 H                 -3.86697353   -1.43793188    0.00058622
 N(Iso=4)          -1.74572030   -1.13598196    0.00033248
 N(Iso=1)          -3.12929599    0.57546874   -0.00021135
 H                 -4.00020512    1.09742162   -0.00038985
 H                 -1.69789074    2.18194469   -0.00085022
 C                  0.45833877    0.02123111    0.00006017
 C                  1.15230203   -1.19695550   -0.00014038
 C                  1.19300447    1.21661999    0.00032126
 C                  2.54562300   -1.21850627   -0.00023762
 H                  0.57980445   -2.12556496   -0.00026162
 C                  2.58554470    1.19253626    0.00020988
 H                  0.66939377    2.17505877    0.00063620
 C                  3.26875997   -0.02510421   -0.00010305
 H                  3.07140933   -2.17535306   -0.00043990
 H                  3.14236532    2.13155322    0.00032846
 H                  4.36000781   -0.04245845   -0.00019197

